1AX4_LLP.pdb
 OpenBabel08211712103D

 24 24  0  0  1  0  0  0  0  0999 V2000
    9.6050   57.5240   89.4450 N   0  0  0  0  0  0  0  0  0  0  0  0
    8.2610   57.4450   89.5410 C   0  0  0  0  0  0  0  0  0  0  0  0
    7.4930   58.1030   90.7330 C   0  0  0  0  0  0  0  0  0  0  0  0
    7.5840   56.7790   88.5150 C   0  0  0  0  0  0  0  0  0  0  0  0
    6.3060   56.6700   88.5640 O   0  0  0  0  0  0  0  0  0  0  0  0
    8.2860   56.1770   87.4350 C   0  0  0  0  0  0  0  0  0  0  0  0
    7.5740   55.4670   86.3450 C   0  0  0  0  0  0  0  0  0  0  0  0
    9.7140   56.2690   87.4390 C   0  0  0  0  0  0  0  0  0  0  0  0
   10.3660   56.9760   88.4630 C   0  0  0  0  0  0  0  0  0  0  0  0
   10.5340   55.6030   86.3330 C   0  0  0  0  0  0  0  0  0  0  0  0
   10.3100   56.2450   85.0490 O   0  0  0  0  0  0  0  0  0  0  0  0
   10.3960   55.2060   83.8010 P   0  0  0  0  0  0  0  0  0  0  0  0
   11.8440   54.7710   83.7250 O   0  0  0  0  0  0  0  0  0  0  0  0
   10.0050   56.1070   82.6560 O   0  0  0  0  0  0  0  0  0  0  0  0
    9.5470   54.0240   84.0110 O   0  0  0  0  0  0  0  0  0  0  0  0
    4.1270   58.9630   81.9550 N   0  0  0  0  0  0  0  0  0  0  0  0
    2.9980   59.0090   82.8920 C   0  0  1  0  0  0  0  0  0  0  0  0
    3.4290   58.9900   84.3510 C   0  0  0  0  0  0  0  0  0  0  0  0
    3.7800   57.6170   84.9130 C   0  0  0  0  0  0  0  0  0  0  0  0
    5.0360   57.0290   84.2750 C   0  0  0  0  0  0  0  0  0  0  0  0
    5.4630   55.7360   84.9680 C   0  0  0  0  0  0  0  0  0  0  0  0
    6.4900   56.0860   85.9680 N   0  0  0  0  0  0  0  0  0  0  0  0
    2.1630   60.2190   82.5440 C   0  0  0  0  0  0  0  0  0  0  0  0
    1.4850   60.1400   81.4910 O   0  0  0  0  0  0  0  0  0  0  0  0
  1  2  1  0  0  0  0
  2  3  1  0  0  0  0
  4  5  1  0  0  0  0
  4  2  2  0  0  0  0
  6  8  2  0  0  0  0
  6  4  1  0  0  0  0
  7  6  1  0  0  0  0
  8  9  1  0  0  0  0
  9  1  2  0  0  0  0
 10  8  1  0  0  0  0
 11 10  1  0  0  0  0
 12 15  1  0  0  0  0
 12 11  1  0  0  0  0
 13 12  1  0  0  0  0
 14 12  2  0  0  0  0
 17 16  1  6  0  0  0
 17 18  1  0  0  0  0
 18 19  1  0  0  0  0
 20 19  1  0  0  0  0
 20 21  1  0  0  0  0
 21 22  1  0  0  0  0
 22  7  1  0  0  0  0
 23 17  1  0  0  0  0
 24 23  2  0  0  0  0
M  END
$$$$
