1DUG_GSH.pdb
 OpenBabel08211712103D

 20 19  0  0  1  0  0  0  0  0999 V2000
   18.3900   51.5510   27.3270 N   0  0  0  0  0  0  0  0  0  0  0  0
   16.9420   51.7140   27.4780 C   0  0  2  0  0  0  0  0  0  0  0  0
   16.2190   52.0610   26.1460 C   0  0  0  0  0  0  0  0  0  0  0  0
   15.0090   51.8150   26.0370 O   0  0  0  0  0  0  0  0  0  0  0  0
   16.9430   52.6060   25.1990 O   0  0  0  0  0  0  0  0  0  0  0  0
   16.6420   52.7680   28.5710 C   0  0  0  0  0  0  0  0  0  0  0  0
   15.2290   52.5610   29.1770 C   0  0  0  0  0  0  0  0  0  0  0  0
   15.0320   53.5730   30.3250 C   0  0  0  0  0  0  0  0  0  0  0  0
   15.9050   53.7400   31.1880 O   0  0  0  0  0  0  0  0  0  0  0  0
   13.8550   54.2140   30.3130 N   0  0  0  0  0  0  0  0  0  0  0  0
   13.5620   55.1990   31.3590 C   0  0  2  0  0  0  0  0  0  0  0  0
   12.3550   54.7250   32.1950 C   0  0  0  0  0  0  0  0  0  0  0  0
   11.5800   55.5140   32.7490 O   0  0  0  0  0  0  0  0  0  0  0  0
   13.1960   56.5450   30.6960 C   0  0  0  0  0  0  0  0  0  0  0  0
   14.6440   57.3670   29.9650 S   0  0  0  0  0  0  0  0  0  0  0  0
   12.1980   53.3830   32.3100 N   0  0  0  0  0  0  0  0  0  0  0  0
   11.0580   52.7730   33.0150 C   0  0  0  0  0  0  0  0  0  0  0  0
   11.5580   52.0030   34.2310 C   0  0  0  0  0  0  0  0  0  0  0  0
   10.6960   51.3910   34.8850 O   0  0  0  0  0  0  0  0  0  0  0  0
   12.7840   52.0300   34.5050 O   0  0  0  0  0  0  0  0  0  0  0  0
  2  1  1  6  0  0  0
  2  6  1  0  0  0  0
  3  2  1  0  0  0  0
  4  3  1  0  0  0  0
  5  3  2  0  0  0  0
  6  7  1  0  0  0  0
  7  8  1  0  0  0  0
  8  9  2  0  0  0  0
 10  8  1  0  0  0  0
 10 11  1  0  0  0  0
 11 14  1  6  0  0  0
 11 12  1  0  0  0  0
 12 16  1  0  0  0  0
 12 13  2  0  0  0  0
 15 14  1  0  0  0  0
 16 17  1  0  0  0  0
 17 18  1  0  0  0  0
 18 20  2  0  0  0  0
 18 19  1  0  0  0  0
M  END
$$$$
