1FGX_U5P.pdb
 OpenBabel08211712103D

 21 22  0  0  1  0  0  0  0  0999 V2000
   20.8050   19.9240   37.7590 N   0  0  0  0  0  0  0  0  0  0  0  0
   21.7500   20.3240   38.7340 C   0  0  0  0  0  0  0  0  0  0  0  0
   21.2310   21.0570   39.8240 N   0  0  0  0  0  0  0  0  0  0  0  0
   19.8850   21.4400   40.0440 C   0  0  0  0  0  0  0  0  0  0  0  0
   18.9860   21.0110   38.9980 C   0  0  0  0  0  0  0  0  0  0  0  0
   19.4340   20.3040   37.9450 C   0  0  0  0  0  0  0  0  0  0  0  0
   22.9410   20.0080   38.5960 O   0  0  0  0  0  0  0  0  0  0  0  0
   19.6020   22.0760   41.0630 O   0  0  0  0  0  0  0  0  0  0  0  0
   21.2860   19.0510   36.5410 C   0  0  1  0  0  0  0  0  0  0  0  0
   20.4330   18.9940   35.2490 C   0  0  2  0  0  0  0  0  0  0  0  0
   19.1570   18.2880   35.3840 O   0  0  0  0  0  0  0  0  0  0  0  0
   21.4470   18.4100   34.2010 C   0  0  1  0  0  0  0  0  0  0  0  0
   22.6690   19.2650   34.5790 C   0  0  2  0  0  0  0  0  0  0  0  0
   21.6220   16.9340   34.2930 O   0  0  0  0  0  0  0  0  0  0  0  0
   22.6530   19.2600   36.0690 O   0  0  0  0  0  0  0  0  0  0  0  0
   22.6470   20.7760   34.1120 C   0  0  0  0  0  0  0  0  0  0  0  0
   23.4330   21.7540   34.8690 O   0  0  0  0  0  0  0  0  0  0  0  0
   25.0650   21.6980   34.8830 P   0  0  0  0  0  0  0  0  0  0  0  0
   25.7480   20.4290   35.4510 O   0  0  0  0  0  0  0  0  0  0  0  0
   25.6190   22.7940   35.7330 O   0  0  0  0  0  0  0  0  0  0  0  0
   25.3950   22.1550   33.2890 O   0  0  0  0  0  0  0  0  0  0  0  0
  1  6  1  0  0  0  0
  1  2  1  0  0  0  0
  2  3  1  0  0  0  0
  3  4  1  0  0  0  0
  4  8  2  0  0  0  0
  5  4  1  0  0  0  0
  6  5  2  0  0  0  0
  7  2  2  0  0  0  0
  9  1  1  1  0  0  0
 10 11  1  1  0  0  0
 10  9  1  0  0  0  0
 12 14  1  1  0  0  0
 12 13  1  0  0  0  0
 12 10  1  0  0  0  0
 13 16  1  6  0  0  0
 13 15  1  0  0  0  0
 15  9  1  0  0  0  0
 16 17  1  0  0  0  0
 17 18  1  0  0  0  0
 18 19  1  0  0  0  0
 18 20  1  0  0  0  0
 21 18  2  0  0  0  0
M  END
$$$$
