1J04_LLP.pdb
 OpenBabel08211712103D

 24 24  0  0  1  0  0  0  0  0999 V2000
  121.3400   36.3600  -86.3510 N   0  0  0  0  0  0  0  0  0  0  0  0
  120.6220   35.8680  -87.3370 C   0  0  0  0  0  0  0  0  0  0  0  0
  121.2120   35.7550  -88.7250 C   0  0  0  0  0  0  0  0  0  0  0  0
  119.2160   35.4170  -87.0760 C   0  0  0  0  0  0  0  0  0  0  0  0
  118.4630   34.8900  -88.1150 O   0  0  0  0  0  0  0  0  0  0  0  0
  118.6820   35.5260  -85.8170 C   0  0  0  0  0  0  0  0  0  0  0  0
  117.2820   35.0520  -85.5590 C   0  0  0  0  0  0  0  0  0  0  0  0
  119.5520   36.1170  -84.7100 C   0  0  0  0  0  0  0  0  0  0  0  0
  120.8320   36.4980  -85.0170 C   0  0  0  0  0  0  0  0  0  0  0  0
  119.0400   36.3010  -83.3020 C   0  0  0  0  0  0  0  0  0  0  0  0
  119.2350   35.1400  -82.5460 O   0  0  0  0  0  0  0  0  0  0  0  0
  118.6470   35.4000  -80.9980 P   0  0  0  0  0  0  0  0  0  0  0  0
  117.0450   35.8090  -81.0970 O   0  0  0  0  0  0  0  0  0  0  0  0
  118.8280   34.0260  -80.2130 O   0  0  0  0  0  0  0  0  0  0  0  0
  119.4640   36.6240  -80.1940 O   0  0  0  0  0  0  0  0  0  0  0  0
  116.0060   28.2180  -84.8640 N   0  0  0  0  0  0  0  0  0  0  0  0
  115.6150   28.4710  -86.2420 C   0  0  1  0  0  0  0  0  0  0  0  0
  116.6760   29.3390  -86.9480 C   0  0  0  0  0  0  0  0  0  0  0  0
  116.4010   30.9090  -86.9670 C   0  0  0  0  0  0  0  0  0  0  0  0
  115.8580   31.5190  -85.6390 C   0  0  0  0  0  0  0  0  0  0  0  0
  115.7270   33.0980  -85.6140 C   0  0  0  0  0  0  0  0  0  0  0  0
  117.0120   33.7730  -85.8050 N   0  0  0  0  0  0  0  0  0  0  0  0
  115.3210   27.1490  -86.9760 C   0  0  0  0  0  0  0  0  0  0  0  0
  114.3690   26.4550  -86.6180 O   0  0  0  0  0  0  0  0  0  0  0  0
  1  9  2  0  0  0  0
  2  4  2  0  0  0  0
  2  1  1  0  0  0  0
  3  2  1  0  0  0  0
  4  6  1  0  0  0  0
  5  4  1  0  0  0  0
  6  7  1  0  0  0  0
  6  8  2  0  0  0  0
  8 10  1  0  0  0  0
  9  8  1  0  0  0  0
 10 11  1  0  0  0  0
 11 12  1  0  0  0  0
 12 14  1  0  0  0  0
 12 15  1  0  0  0  0
 13 12  2  0  0  0  0
 17 16  1  1  0  0  0
 18 17  1  0  0  0  0
 19 18  1  0  0  0  0
 19 20  2  0  0  0  0
 20 21  1  0  0  0  0
 22 21  1  0  0  0  0
 22  7  2  0  0  0  0
 23 24  2  0  0  0  0
 23 17  1  0  0  0  0
M  END
$$$$
