1JJ0_SUC.pdb
 OpenBabel08211712103D

 23 24  0  0  1  0  0  0  0  0999 V2000
   -6.7950   54.4380    6.9570 C   0  0  1  0  0  0  0  0  0  0  0  0
   -7.7580   54.5700    5.7570 C   0  0  1  0  0  0  0  0  0  0  0  0
   -6.9790   54.2840    4.4620 C   0  0  2  0  0  0  0  0  0  0  0  0
   -5.8130   55.3080    4.3290 C   0  0  1  0  0  0  0  0  0  0  0  0
   -4.8870   55.1650    5.5650 C   0  0  1  0  0  0  0  0  0  0  0  0
   -3.6490   56.0700    5.6530 C   0  0  0  0  0  0  0  0  0  0  0  0
   -6.3310   53.0920    7.0560 O   0  0  0  0  0  0  0  0  0  0  0  0
   -8.8290   53.6460    5.9020 O   0  0  0  0  0  0  0  0  0  0  0  0
   -7.8550   54.3980    3.3530 O   0  0  0  0  0  0  0  0  0  0  0  0
   -5.0620   55.0640    3.1390 O   0  0  0  0  0  0  0  0  0  0  0  0
   -5.6810   55.3880    6.7900 O   0  0  0  0  0  0  0  0  0  0  0  0
   -3.9890   57.4280    5.8740 O   0  0  0  0  0  0  0  0  0  0  0  0
   -7.8940   51.7870    8.4440 C   0  0  0  0  0  0  0  0  0  0  0  0
   -6.4910   52.3900    8.3090 C   0  0  1  0  0  0  0  0  0  0  0  0
   -5.4180   51.2920    8.4100 C   0  0  2  0  0  0  0  0  0  0  0  0
   -4.2020   52.0890    8.8390 C   0  0  1  0  0  0  0  0  0  0  0  0
   -4.8430   53.1030    9.8110 C   0  0  1  0  0  0  0  0  0  0  0  0
   -4.2130   54.4850    9.7290 C   0  0  0  0  0  0  0  0  0  0  0  0
   -8.0420   51.0960    9.6840 O   0  0  0  0  0  0  0  0  0  0  0  0
   -6.2330   53.2230    9.4240 O   0  0  0  0  0  0  0  0  0  0  0  0
   -5.1900   50.6940    7.1320 O   0  0  0  0  0  0  0  0  0  0  0  0
   -3.3030   51.2520    9.5590 O   0  0  0  0  0  0  0  0  0  0  0  0
   -3.1990   54.6090   10.7130 O   0  0  0  0  0  0  0  0  0  0  0  0
  1  7  1  6  0  0  0
  2  8  1  1  0  0  0
  2  1  1  0  0  0  0
  3  9  1  6  0  0  0
  3  2  1  0  0  0  0
  4 10  1  6  0  0  0
  4  3  1  0  0  0  0
  4  5  1  0  0  0  0
  5  6  1  6  0  0  0
  5 11  1  0  0  0  0
  6 12  1  0  0  0  0
  7 14  1  0  0  0  0
 11  1  1  0  0  0  0
 13 19  1  0  0  0  0
 14 13  1  1  0  0  0
 14 20  1  0  0  0  0
 15 14  1  6  0  0  0
 15 16  1  0  0  0  0
 16 22  1  1  0  0  0
 16 17  1  0  0  0  0
 17 18  1  6  0  0  0
 18 23  1  0  0  0  0
 20 17  1  0  0  0  0
 21 15  1  0  0  0  0
M  END
$$$$
