1M66_PLM.pdb
 OpenBabel08211712103D

 18 17  0  0  0  0  0  0  0  0999 V2000
   41.0600   64.0900   -6.2950 C   0  0  0  0  0  0  0  0  0  0  0  0
   40.3830   65.1790   -6.0280 O   0  0  0  0  0  0  0  0  0  0  0  0
   42.3210   64.0180   -5.9340 O   0  0  0  0  0  0  0  0  0  0  0  0
   40.3800   62.9540   -7.0180 C   0  0  0  0  0  0  0  0  0  0  0  0
   40.9170   61.6260   -6.5250 C   0  0  0  0  0  0  0  0  0  0  0  0
   39.8480   60.5660   -6.6900 C   0  0  0  0  0  0  0  0  0  0  0  0
   40.4370   59.2180   -6.3360 C   0  0  0  0  0  0  0  0  0  0  0  0
   39.6990   58.1000   -7.0420 C   0  0  0  0  0  0  0  0  0  0  0  0
   39.5090   56.9710   -6.0510 C   0  0  0  0  0  0  0  0  0  0  0  0
   38.0370   56.6330   -5.8870 C   0  0  0  0  0  0  0  0  0  0  0  0
   37.9190   55.2610   -5.2520 C   0  0  0  0  0  0  0  0  0  0  0  0
   36.4780   54.7880   -5.2320 C   0  0  0  0  0  0  0  0  0  0  0  0
   35.5280   55.9410   -4.9490 C   0  0  0  0  0  0  0  0  0  0  0  0
   35.1200   55.9360   -3.4870 C   0  0  0  0  0  0  0  0  0  0  0  0
   33.8450   56.7310   -3.2650 C   0  0  0  0  0  0  0  0  0  0  0  0
   33.8160   57.2310   -1.8310 C   0  0  0  0  0  0  0  0  0  0  0  0
   33.1690   58.6010   -1.7270 C   0  0  0  0  0  0  0  0  0  0  0  0
   32.8290   58.8670   -0.2690 C   0  0  0  0  0  0  0  0  0  0  0  0
  1  2  2  0  0  0  0
  1  3  1  0  0  0  0
  4  5  1  0  0  0  0
  4  1  1  0  0  0  0
  6  5  1  0  0  0  0
  6  7  1  0  0  0  0
  8  7  1  0  0  0  0
  8  9  1  0  0  0  0
  9 10  1  0  0  0  0
 10 11  1  0  0  0  0
 11 12  1  0  0  0  0
 12 13  1  0  0  0  0
 13 14  1  0  0  0  0
 14 15  1  0  0  0  0
 15 16  1  0  0  0  0
 16 17  1  0  0  0  0
 17 18  1  0  0  0  0
M  END
$$$$
