1MDO_PMP.pdb
 OpenBabel08211712103D

 16 16  0  0  0  0  0  0  0  0999 V2000
   27.8770   25.3550   15.1070 N   0  0  0  0  0  0  0  0  0  0  0  0
   27.9580   26.3270   16.0760 C   0  0  0  0  0  0  0  0  0  0  0  0
   27.9680   25.9040   17.5650 C   0  0  0  0  0  0  0  0  0  0  0  0
   28.0270   27.6700   15.7190 C   0  0  0  0  0  0  0  0  0  0  0  0
   28.1190   28.6630   16.6610 O   0  0  0  0  0  0  0  0  0  0  0  0
   28.0050   28.0210   14.3690 C   0  0  0  0  0  0  0  0  0  0  0  0
   28.0760   29.5290   13.9190 C   0  0  0  0  0  0  0  0  0  0  0  0
   28.5360   30.4030   14.8880 N   0  0  0  0  0  0  0  0  0  0  0  0
   27.9200   27.0250   13.4050 C   0  0  0  0  0  0  0  0  0  0  0  0
   27.8660   25.6910   13.7700 C   0  0  0  0  0  0  0  0  0  0  0  0
   27.9140   27.4380   11.9200 C   0  0  0  0  0  0  0  0  0  0  0  0
   29.0730   28.1460   11.5180 O   0  0  0  0  0  0  0  0  0  0  0  0
   29.2240   28.8020   10.0900 P   0  0  0  0  0  0  0  0  0  0  0  0
   30.7050   28.8430    9.8730 O   0  0  0  0  0  0  0  0  0  0  0  0
   28.8090   30.2580   10.3090 O   0  0  0  0  0  0  0  0  0  0  0  0
   28.4150   28.1170    9.1000 O   0  0  0  0  0  0  0  0  0  0  0  0
  1  2  2  0  0  0  0
  2  3  1  0  0  0  0
  4  2  1  0  0  0  0
  4  5  1  0  0  0  0
  6  4  2  0  0  0  0
  7  6  1  0  0  0  0
  7  8  1  0  0  0  0
  9 10  2  0  0  0  0
  9  6  1  0  0  0  0
 10  1  1  0  0  0  0
 11  9  1  0  0  0  0
 12 11  1  0  0  0  0
 13 15  1  0  0  0  0
 13 12  1  0  0  0  0
 14 13  1  0  0  0  0
 16 13  2  0  0  0  0
M  END
$$$$
