1PT2_SUC.pdb
 OpenBabel08211712103D

 23 24  0  0  1  0  0  0  0  0999 V2000
   39.0870   37.2670   14.5830 C   0  0  1  0  0  0  0  0  0  0  0  0
   39.1040   37.8480   16.0020 C   0  0  1  0  0  0  0  0  0  0  0  0
   37.9750   37.3020   16.8810 C   0  0  2  0  0  0  0  0  0  0  0  0
   36.6400   37.4520   16.1570 C   0  0  1  0  0  0  0  0  0  0  0  0
   36.7440   36.8670   14.7450 C   0  0  1  0  0  0  0  0  0  0  0  0
   35.4470   37.0850   13.9730 C   0  0  0  0  0  0  0  0  0  0  0  0
   39.4010   35.8830   14.5610 O   0  0  0  0  0  0  0  0  0  0  0  0
   40.3420   37.5540   16.5890 O   0  0  0  0  0  0  0  0  0  0  0  0
   37.9380   37.9550   18.1460 O   0  0  0  0  0  0  0  0  0  0  0  0
   35.6150   36.7760   16.8650 O   0  0  0  0  0  0  0  0  0  0  0  0
   37.8080   37.4510   14.0140 O   0  0  0  0  0  0  0  0  0  0  0  0
   35.2860   38.4540   13.6950 O   0  0  0  0  0  0  0  0  0  0  0  0
   41.7970   35.6950   14.3860 C   0  0  0  0  0  0  0  0  0  0  0  0
   40.4510   35.5170   13.6770 C   0  0  1  0  0  0  0  0  0  0  0  0
   40.2370   34.0680   13.2380 C   0  0  2  0  0  0  0  0  0  0  0  0
   39.2610   34.2380   12.0910 C   0  0  1  0  0  0  0  0  0  0  0  0
   39.6720   35.5700   11.4830 C   0  0  1  0  0  0  0  0  0  0  0  0
   38.4820   36.3600   10.9650 C   0  0  0  0  0  0  0  0  0  0  0  0
   42.3790   36.9410   14.0930 O   0  0  0  0  0  0  0  0  0  0  0  0
   40.3630   36.2900   12.4850 O   0  0  0  0  0  0  0  0  0  0  0  0
   39.7500   33.2400   14.2780 O   0  0  0  0  0  0  0  0  0  0  0  0
   39.3600   33.2140   11.1340 O   0  0  0  0  0  0  0  0  0  0  0  0
   38.9160   37.6170   10.4860 O   0  0  0  0  0  0  0  0  0  0  0  0
  1  7  1  1  0  0  0
  1  2  1  0  0  0  0
  2  8  1  1  0  0  0
  2  3  1  0  0  0  0
  3  9  1  1  0  0  0
  4 10  1  1  0  0  0
  4  3  1  0  0  0  0
  5  6  1  6  0  0  0
  5  4  1  0  0  0  0
 11  1  1  0  0  0  0
 11  5  1  0  0  0  0
 12  6  1  0  0  0  0
 14 13  1  1  0  0  0
 14  7  1  0  0  0  0
 15 14  1  1  0  0  0
 15 21  1  0  0  0  0
 16 22  1  6  0  0  0
 16 15  1  0  0  0  0
 17 18  1  1  0  0  0
 17 16  1  0  0  0  0
 17 20  1  0  0  0  0
 19 13  1  0  0  0  0
 20 14  1  0  0  0  0
 23 18  1  0  0  0  0
M  END
$$$$
