1TJ4_SUC.pdb
 OpenBabel08211712103D

 23 24  0  0  1  0  0  0  0  0999 V2000
   45.1650    1.9560   94.5350 C   0  0  1  0  0  0  0  0  0  0  0  0
   44.2690    1.9970   93.2840 C   0  0  1  0  0  0  0  0  0  0  0  0
   44.6130    0.8520   92.3180 C   0  0  2  0  0  0  0  0  0  0  0  0
   46.0810    1.0210   91.9380 C   0  0  1  0  0  0  0  0  0  0  0  0
   46.9620    0.9660   93.2090 C   0  0  1  0  0  0  0  0  0  0  0  0
   48.4470    1.1530   92.9270 C   0  0  0  0  0  0  0  0  0  0  0  0
   44.8590    0.7220   95.2290 O   0  0  0  0  0  0  0  0  0  0  0  0
   42.8970    1.9110   93.6780 O   0  0  0  0  0  0  0  0  0  0  0  0
   43.7890    0.9070   91.1530 O   0  0  0  0  0  0  0  0  0  0  0  0
   46.4350   -0.0190   91.0370 O   0  0  0  0  0  0  0  0  0  0  0  0
   46.5790    2.0040   94.1380 O   0  0  0  0  0  0  0  0  0  0  0  0
   48.7010    2.4930   92.5130 O   0  0  0  0  0  0  0  0  0  0  0  0
   43.4400    1.4720   97.1740 C   0  0  0  0  0  0  0  0  0  0  0  0
   44.6740    0.7060   96.6730 C   0  0  1  0  0  0  0  0  0  0  0  0
   44.6940   -0.8000   97.0710 C   0  0  2  0  0  0  0  0  0  0  0  0
   46.1750   -1.0610   97.3010 C   0  0  1  0  0  0  0  0  0  0  0  0
   46.5350    0.2220   98.0210 C   0  0  1  0  0  0  0  0  0  0  0  0
   48.0200    0.5340   98.0160 C   0  0  0  0  0  0  0  0  0  0  0  0
   42.2560    0.9820   96.5540 O   0  0  0  0  0  0  0  0  0  0  0  0
   45.8260    1.2640   97.3410 O   0  0  0  0  0  0  0  0  0  0  0  0
   44.1970   -1.6610   96.0370 O   0  0  0  0  0  0  0  0  0  0  0  0
   46.4180   -2.2210   98.1160 O   0  0  0  0  0  0  0  0  0  0  0  0
   48.2250    1.8630   98.4940 O   0  0  0  0  0  0  0  0  0  0  0  0
  1  7  1  6  0  0  0
  2  8  1  1  0  0  0
  2  1  1  0  0  0  0
  3  9  1  6  0  0  0
  3  2  1  0  0  0  0
  4 10  1  6  0  0  0
  4  3  1  0  0  0  0
  4  5  1  0  0  0  0
  5  6  1  6  0  0  0
  5 11  1  0  0  0  0
  7 14  1  0  0  0  0
 11  1  1  0  0  0  0
 12  6  1  0  0  0  0
 14 13  1  1  0  0  0
 14 20  1  0  0  0  0
 15 14  1  6  0  0  0
 15 16  1  0  0  0  0
 16 17  1  0  0  0  0
 16 22  1  1  0  0  0
 17 18  1  6  0  0  0
 18 23  1  0  0  0  0
 19 13  1  0  0  0  0
 20 17  1  0  0  0  0
 21 15  1  0  0  0  0
M  END
$$$$
