1ZC9_PMP.pdb
 OpenBabel08211712103D

 16 16  0  0  0  0  0  0  0  0999 V2000
   17.1240   52.9180   13.7800 N   0  0  0  0  0  0  0  0  0  0  0  0
   16.0010   53.1890   14.5470 C   0  0  0  0  0  0  0  0  0  0  0  0
   14.9270   54.1310   13.9730 C   0  0  0  0  0  0  0  0  0  0  0  0
   15.9560   52.5580   15.8330 C   0  0  0  0  0  0  0  0  0  0  0  0
   14.8710   52.8170   16.5890 O   0  0  0  0  0  0  0  0  0  0  0  0
   16.9930   51.7190   16.2850 C   0  0  0  0  0  0  0  0  0  0  0  0
   16.8920   51.1130   17.6130 C   0  0  0  0  0  0  0  0  0  0  0  0
   15.9010   50.2490   17.7330 N   0  0  0  0  0  0  0  0  0  0  0  0
   18.1100   51.5050   15.3980 C   0  0  0  0  0  0  0  0  0  0  0  0
   18.1770   52.0930   14.1570 C   0  0  0  0  0  0  0  0  0  0  0  0
   19.3130   50.5770   15.7990 C   0  0  0  0  0  0  0  0  0  0  0  0
   19.0220   49.2060   15.6340 O   0  0  0  0  0  0  0  0  0  0  0  0
   19.9460   48.1540   16.4000 P   0  0  0  0  0  0  0  0  0  0  0  0
   19.3970   46.8460   16.0150 O   0  0  0  0  0  0  0  0  0  0  0  0
   21.3840   48.2490   15.9300 O   0  0  0  0  0  0  0  0  0  0  0  0
   19.8240   48.4070   17.8060 O   0  0  0  0  0  0  0  0  0  0  0  0
  1 10  2  0  0  0  0
  1  2  1  0  0  0  0
  2  4  2  0  0  0  0
  3  2  1  0  0  0  0
  4  6  1  0  0  0  0
  4  5  1  0  0  0  0
  6  7  1  0  0  0  0
  7  8  1  0  0  0  0
  9 11  1  0  0  0  0
  9  6  2  0  0  0  0
 10  9  1  0  0  0  0
 12 11  1  0  0  0  0
 12 13  1  0  0  0  0
 13 16  1  0  0  0  0
 14 13  1  0  0  0  0
 15 13  2  0  0  0  0
M  END
$$$$
