2BLN_U5P.pdb
 OpenBabel08211712103D

 21 22  0  0  1  0  0  0  0  0999 V2000
   35.6400   44.8240    7.7660 N   0  0  0  0  0  0  0  0  0  0  0  0
   36.8070   44.2070    7.3380 C   0  0  0  0  0  0  0  0  0  0  0  0
   37.2870   44.5040    6.0470 N   0  0  0  0  0  0  0  0  0  0  0  0
   36.5880   45.3580    5.1970 C   0  0  0  0  0  0  0  0  0  0  0  0
   35.3790   45.9720    5.6180 C   0  0  0  0  0  0  0  0  0  0  0  0
   34.9530   45.6990    6.9090 C   0  0  0  0  0  0  0  0  0  0  0  0
   37.4210   43.4350    8.0720 O   0  0  0  0  0  0  0  0  0  0  0  0
   37.0820   45.5420    4.0850 O   0  0  0  0  0  0  0  0  0  0  0  0
   35.1030   44.5290    9.1270 C   0  0  1  0  0  0  0  0  0  0  0  0
   35.1780   45.7320   10.0450 C   0  0  2  0  0  0  0  0  0  0  0  0
   36.4560   45.7690   10.6880 O   0  0  0  0  0  0  0  0  0  0  0  0
   34.0470   45.4270   11.0260 C   0  0  1  0  0  0  0  0  0  0  0  0
   32.9920   44.7810   10.1250 C   0  0  2  0  0  0  0  0  0  0  0  0
   34.5040   44.4850   11.9980 O   0  0  0  0  0  0  0  0  0  0  0  0
   33.6800   44.3160    8.9110 O   0  0  0  0  0  0  0  0  0  0  0  0
   31.9210   45.7780    9.6520 C   0  0  0  0  0  0  0  0  0  0  0  0
   32.4830   47.1130    9.4890 O   0  0  0  0  0  0  0  0  0  0  0  0
   31.5850   48.5150    9.5640 P   0  0  0  0  0  0  0  0  0  0  0  0
   33.0270   49.2100    9.2330 O   0  0  0  0  0  0  0  0  0  0  0  0
   30.8350   47.8540    8.2710 O   0  0  0  0  0  0  0  0  0  0  0  0
   31.2320   48.0900   10.9630 O   0  0  0  0  0  0  0  0  0  0  0  0
  2  1  1  0  0  0  0
  2  7  2  0  0  0  0
  3  2  1  0  0  0  0
  4  5  1  0  0  0  0
  4  3  1  0  0  0  0
  5  6  2  0  0  0  0
  6  1  1  0  0  0  0
  8  4  2  0  0  0  0
  9  1  1  6  0  0  0
  9 10  1  0  0  0  0
 10 11  1  1  0  0  0
 10 12  1  0  0  0  0
 12 14  1  1  0  0  0
 13 16  1  6  0  0  0
 13 12  1  0  0  0  0
 15  9  1  0  0  0  0
 15 13  1  0  0  0  0
 17 18  1  0  0  0  0
 17 16  1  0  0  0  0
 18 21  1  0  0  0  0
 19 18  1  0  0  0  0
 20 18  2  0  0  0  0
M  END
$$$$
