2C37_U5P.pdb
 OpenBabel08211712103D

 21 22  0  0  1  0  0  0  0  0999 V2000
  -28.1040  -15.9960  -14.6270 N   0  0  0  0  0  0  0  0  0  0  0  0
  -27.3260  -15.7280  -15.7570 C   0  0  0  0  0  0  0  0  0  0  0  0
  -26.8060  -14.4540  -15.8360 N   0  0  0  0  0  0  0  0  0  0  0  0
  -26.9840  -13.4280  -14.9220 C   0  0  0  0  0  0  0  0  0  0  0  0
  -27.8050  -13.7750  -13.7790 C   0  0  0  0  0  0  0  0  0  0  0  0
  -28.3220  -15.0120  -13.6740 C   0  0  0  0  0  0  0  0  0  0  0  0
  -27.0800  -16.5240  -16.6420 O   0  0  0  0  0  0  0  0  0  0  0  0
  -26.4600  -12.3340  -15.1220 O   0  0  0  0  0  0  0  0  0  0  0  0
  -28.7630  -17.3380  -14.3710 C   0  0  1  0  0  0  0  0  0  0  0  0
  -30.2480  -17.3480  -14.7420 C   0  0  2  0  0  0  0  0  0  0  0  0
  -30.9650  -18.1270  -13.7920 O   0  0  0  0  0  0  0  0  0  0  0  0
  -30.1880  -17.9590  -16.1430 C   0  0  1  0  0  0  0  0  0  0  0  0
  -29.2390  -19.1030  -15.8090 C   0  0  2  0  0  0  0  0  0  0  0  0
  -31.4650  -18.4420  -16.6120 O   0  0  0  0  0  0  0  0  0  0  0  0
  -28.1770  -18.4050  -15.1030 O   0  0  0  0  0  0  0  0  0  0  0  0
  -28.7040  -19.9300  -16.9640 C   0  0  0  0  0  0  0  0  0  0  0  0
  -27.9220  -19.1220  -17.8390 O   0  0  0  0  0  0  0  0  0  0  0  0
  -26.7370  -19.7370  -18.7230 P   0  0  0  0  0  0  0  0  0  0  0  0
  -25.4670  -19.6140  -17.9680 O   0  0  0  0  0  0  0  0  0  0  0  0
  -27.1590  -21.0830  -19.1860 O   0  0  0  0  0  0  0  0  0  0  0  0
  -26.6350  -18.8570  -19.9090 O   0  0  0  0  0  0  0  0  0  0  0  0
  1  6  1  0  0  0  0
  2  1  1  0  0  0  0
  3  2  1  0  0  0  0
  3  4  1  0  0  0  0
  4  5  1  0  0  0  0
  5  6  2  0  0  0  0
  7  2  2  0  0  0  0
  8  4  2  0  0  0  0
  9  1  1  6  0  0  0
 10  9  1  0  0  0  0
 10 11  1  1  0  0  0
 12 14  1  1  0  0  0
 12 13  1  0  0  0  0
 12 10  1  0  0  0  0
 13 16  1  6  0  0  0
 13 15  1  0  0  0  0
 15  9  1  0  0  0  0
 17 16  1  0  0  0  0
 18 19  1  0  0  0  0
 18 17  1  0  0  0  0
 20 18  1  0  0  0  0
 21 18  2  0  0  0  0
M  END
$$$$
