2FLS_GSH.pdb
 OpenBabel08211712103D

 20 19  0  0  1  0  0  0  0  0999 V2000
  -18.6880    7.0220    2.6670 N   0  0  0  0  0  0  0  0  0  0  0  0
  -19.6060    7.3140    3.7470 C   0  0  2  0  0  0  0  0  0  0  0  0
  -19.3180    8.6540    4.3740 C   0  0  0  0  0  0  0  0  0  0  0  0
  -18.2060    9.1360    4.2070 O   0  0  0  0  0  0  0  0  0  0  0  0
  -20.2030    9.2390    5.0210 O   0  0  0  0  0  0  0  0  0  0  0  0
  -19.4670    6.2440    4.8060 C   0  0  0  0  0  0  0  0  0  0  0  0
  -20.6380    6.2820    5.8030 C   0  0  0  0  0  0  0  0  0  0  0  0
  -21.0480    4.8900    6.2390 C   0  0  0  0  0  0  0  0  0  0  0  0
  -20.5680    3.8970    5.7020 O   0  0  0  0  0  0  0  0  0  0  0  0
  -21.9120    4.8220    7.2560 N   0  0  0  0  0  0  0  0  0  0  0  0
  -22.4140    3.5670    7.8110 C   0  0  2  0  0  0  0  0  0  0  0  0
  -23.8100    3.2930    7.3520 C   0  0  0  0  0  0  0  0  0  0  0  0
  -24.5210    4.2160    7.0700 O   0  0  0  0  0  0  0  0  0  0  0  0
  -22.5090    3.7230    9.3340 C   0  0  0  0  0  0  0  0  0  0  0  0
  -20.8930    3.7810   10.1560 S   0  0  0  0  0  0  0  0  0  0  0  0
  -24.2400    2.0430    7.3210 N   0  0  0  0  0  0  0  0  0  0  0  0
  -25.5630    1.6270    6.9260 C   0  0  0  0  0  0  0  0  0  0  0  0
  -26.6090    2.1200    7.9130 C   0  0  0  0  0  0  0  0  0  0  0  0
  -26.3360    2.3710    9.1190 O   0  0  0  0  0  0  0  0  0  0  0  0
  -27.7580    2.2210    7.4560 O   0  0  0  0  0  0  0  0  0  0  0  0
  2  1  1  6  0  0  0
  2  3  1  0  0  0  0
  2  6  1  0  0  0  0
  3  5  1  0  0  0  0
  4  3  2  0  0  0  0
  6  7  1  0  0  0  0
  7  8  1  0  0  0  0
  8 10  1  0  0  0  0
  9  8  2  0  0  0  0
 10 11  1  0  0  0  0
 11 14  1  1  0  0  0
 12 11  1  0  0  0  0
 13 12  2  0  0  0  0
 14 15  1  0  0  0  0
 16 12  1  0  0  0  0
 17 16  1  0  0  0  0
 17 18  1  0  0  0  0
 18 19  1  0  0  0  0
 20 18  2  0  0  0  0
M  END
$$$$
