1A0T_SUC.pdb
 OpenBabel08201720563D

 23 24  0  0  1  0  0  0  0  0999 V2000
  -44.9520  -14.6450  -14.2580 C   0  0  1  0  0  0  0  0  0  0  0  0
  -43.9740  -15.8130  -14.4360 C   0  0  1  0  0  0  0  0  0  0  0  0
  -44.3250  -16.9490  -13.4760 C   0  0  2  0  0  0  0  0  0  0  0  0
  -44.2860  -16.4420  -12.0850 C   0  0  1  0  0  0  0  0  0  0  0  0
  -45.2770  -15.3040  -11.9210 C   0  0  1  0  0  0  0  0  0  0  0  0
  -45.2450  -14.7580  -10.5290 C   0  0  0  0  0  0  0  0  0  0  0  0
  -46.2730  -15.0610  -14.6480 O   0  0  0  0  0  0  0  0  0  0  0  0
  -43.9850  -16.2330  -15.8010 O   0  0  0  0  0  0  0  0  0  0  0  0
  -43.3750  -17.9870  -13.6420 O   0  0  0  0  0  0  0  0  0  0  0  0
  -44.6130  -17.5380  -11.1870 O   0  0  0  0  0  0  0  0  0  0  0  0
  -44.9180  -14.2440  -12.8600 O   0  0  0  0  0  0  0  0  0  0  0  0
  -46.1150  -15.5190   -9.6790 O   0  0  0  0  0  0  0  0  0  0  0  0
  -47.2710  -13.5190  -16.2880 C   0  0  0  0  0  0  0  0  0  0  0  0
  -47.2900  -14.0250  -14.8500 C   0  0  1  0  0  0  0  0  0  0  0  0
  -48.6560  -14.5810  -14.3610 C   0  0  2  0  0  0  0  0  0  0  0  0
  -48.6700  -14.1750  -12.9030 C   0  0  1  0  0  0  0  0  0  0  0  0
  -48.0640  -12.7740  -13.0260 C   0  0  1  0  0  0  0  0  0  0  0  0
  -47.5100  -12.1450  -11.7790 C   0  0  0  0  0  0  0  0  0  0  0  0
  -48.4900  -12.8180  -16.5360 O   0  0  0  0  0  0  0  0  0  0  0  0
  -47.0210  -12.9340  -14.0020 O   0  0  0  0  0  0  0  0  0  0  0  0
  -48.8650  -15.9510  -14.6060 O   0  0  0  0  0  0  0  0  0  0  0  0
  -50.0050  -14.1820  -12.3880 O   0  0  0  0  0  0  0  0  0  0  0  0
  -47.9020  -12.8310  -10.6210 O   0  0  0  0  0  0  0  0  0  0  0  0
  1  7  1  1  0  0  0
  1 11  1  0  0  0  0
  2  8  1  6  0  0  0
  2  1  1  0  0  0  0
  2  3  1  0  0  0  0
  3  9  1  1  0  0  0
  3  4  1  0  0  0  0
  4  5  1  0  0  0  0
  4 10  1  1  0  0  0
  5  6  1  1  0  0  0
  6 12  1  0  0  0  0
 11  5  1  0  0  0  0
 14 13  1  6  0  0  0
 14  7  1  0  0  0  0
 14 20  1  0  0  0  0
 15 14  1  1  0  0  0
 15 16  1  0  0  0  0
 16 22  1  6  0  0  0
 17 16  1  0  0  0  0
 17 18  1  1  0  0  0
 18 23  1  0  0  0  0
 19 13  1  0  0  0  0
 20 17  1  0  0  0  0
 21 15  1  0  0  0  0
M  END
$$$$
