1AUA_BOG.pdb
 OpenBabel08201720563D

 20 20  0  0  1  0  0  0  0  0999 V2000
   12.3070   28.0660   12.8230 C   0  0  1  0  0  0  0  0  0  0  0  0
   13.1350   29.1480   12.3620 O   0  0  0  0  0  0  0  0  0  0  0  0
   11.3680   28.6660   13.8320 C   0  0  2  0  0  0  0  0  0  0  0  0
   12.0490   28.7080   15.0730 O   0  0  0  0  0  0  0  0  0  0  0  0
   10.0660   27.9200   14.0670 C   0  0  1  0  0  0  0  0  0  0  0  0
    9.0360   28.8560   14.3670 O   0  0  0  0  0  0  0  0  0  0  0  0
    9.5700   27.0040   12.9490 C   0  0  2  0  0  0  0  0  0  0  0  0
    8.9000   25.9170   13.5910 O   0  0  0  0  0  0  0  0  0  0  0  0
   10.7020   26.4580   12.0860 C   0  0  2  0  0  0  0  0  0  0  0  0
   11.5900   27.5260   11.6890 O   0  0  0  0  0  0  0  0  0  0  0  0
   10.2570   25.7860   10.7810 C   0  0  0  0  0  0  0  0  0  0  0  0
   10.6580   24.4170   10.7170 O   0  0  0  0  0  0  0  0  0  0  0  0
   12.5220   29.8490   11.2840 C   0  0  0  0  0  0  0  0  0  0  0  0
   13.3050   30.8880   10.4660 C   0  0  0  0  0  0  0  0  0  0  0  0
   14.8010   30.9400   10.6570 C   0  0  0  0  0  0  0  0  0  0  0  0
   15.2470   32.3650   11.0020 C   0  0  0  0  0  0  0  0  0  0  0  0
   14.5580   33.3810   10.0490 C   0  0  0  0  0  0  0  0  0  0  0  0
   15.0680   33.2150    8.6220 C   0  0  0  0  0  0  0  0  0  0  0  0
   16.4350   33.8490    8.4300 C   0  0  0  0  0  0  0  0  0  0  0  0
   16.4080   35.3560    8.6430 C   0  0  0  0  0  0  0  0  0  0  0  0
  1  2  1  6  0  0  0
  1  3  1  0  0  0  0
  3  5  1  0  0  0  0
  3  4  1  1  0  0  0
  5  6  1  6  0  0  0
  7  8  1  1  0  0  0
  7  5  1  0  0  0  0
  9 11  1  6  0  0  0
  9  7  1  0  0  0  0
 10  9  1  0  0  0  0
 10  1  1  0  0  0  0
 12 11  1  0  0  0  0
 13  2  1  0  0  0  0
 14 15  1  0  0  0  0
 14 13  2  0  0  0  0
 15 16  1  0  0  0  0
 17 16  1  0  0  0  0
 18 17  1  0  0  0  0
 19 18  1  0  0  0  0
 19 20  1  0  0  0  0
M  END
$$$$
