1B4W_BOG.pdb
 OpenBabel08201720563D

 20 20  0  0  1  0  0  0  0  0999 V2000
   35.9490   -7.7200   14.5060 C   0  0  1  0  0  0  0  0  0  0  0  0
   35.8170   -7.9150   13.1390 O   0  0  0  0  0  0  0  0  0  0  0  0
   35.4620   -6.3200   14.8760 C   0  0  2  0  0  0  0  0  0  0  0  0
   36.2510   -5.3460   14.2010 O   0  0  0  0  0  0  0  0  0  0  0  0
   35.5560   -6.1190   16.3980 C   0  0  1  0  0  0  0  0  0  0  0  0
   34.9550   -4.8790   16.7530 O   0  0  0  0  0  0  0  0  0  0  0  0
   34.8560   -7.2630   17.1550 C   0  0  2  0  0  0  0  0  0  0  0  0
   35.1390   -7.1650   18.5510 O   0  0  0  0  0  0  0  0  0  0  0  0
   35.3270   -8.6300   16.6290 C   0  0  2  0  0  0  0  0  0  0  0  0
   35.1590   -8.7030   15.1930 O   0  0  0  0  0  0  0  0  0  0  0  0
   34.5650   -9.7980   17.2420 C   0  0  0  0  0  0  0  0  0  0  0  0
   34.2490  -10.7890   16.2720 O   0  0  0  0  0  0  0  0  0  0  0  0
   36.3450   -9.1410   12.5940 C   0  0  0  0  0  0  0  0  0  0  0  0
   36.1850   -9.1370   11.0720 C   0  0  0  0  0  0  0  0  0  0  0  0
   37.0520   -8.0390   10.4610 C   0  0  0  0  0  0  0  0  0  0  0  0
   36.9320   -8.0240    8.9400 C   0  0  0  0  0  0  0  0  0  0  0  0
   37.7800   -6.8920    8.3490 C   0  0  0  0  0  0  0  0  0  0  0  0
   37.1440   -5.5270    8.6130 C   0  0  0  0  0  0  0  0  0  0  0  0
   38.1370   -4.4000    8.3320 C   0  0  0  0  0  0  0  0  0  0  0  0
   37.5120   -3.0360    8.6540 C   0  0  0  0  0  0  0  0  0  0  0  0
  1  2  1  6  0  0  0
  1  3  1  0  0  0  0
  1 10  1  0  0  0  0
  3  4  1  6  0  0  0
  3  5  1  0  0  0  0
  5  6  1  6  0  0  0
  5  7  1  0  0  0  0
  7  8  1  1  0  0  0
  9  7  1  0  0  0  0
  9 11  1  1  0  0  0
 10  9  1  0  0  0  0
 12 11  1  0  0  0  0
 13  2  1  0  0  0  0
 14 13  1  0  0  0  0
 15 14  1  0  0  0  0
 16 15  1  0  0  0  0
 17 18  1  0  0  0  0
 17 16  1  0  0  0  0
 19 18  1  0  0  0  0
 19 20  1  0  0  0  0
M  END
$$$$
