1BW0_LLP.pdb
 OpenBabel08201720563D

 24 24  0  0  1  0  0  0  0  0999 V2000
   17.3490   -0.1300  -13.8290 N   0  0  0  0  0  0  0  0  0  0  0  0
   16.8710    0.4190  -14.9770 C   0  0  0  0  0  0  0  0  0  0  0  0
   17.8330    0.5480  -16.1250 C   0  0  0  0  0  0  0  0  0  0  0  0
   15.5700    0.8250  -15.0610 C   0  0  0  0  0  0  0  0  0  0  0  0
   15.0840    1.3600  -16.2030 O   0  0  0  0  0  0  0  0  0  0  0  0
   14.7250    0.6940  -13.9970 C   0  0  0  0  0  0  0  0  0  0  0  0
   13.2580    1.1250  -14.1070 C   0  0  0  0  0  0  0  0  0  0  0  0
   15.2160    0.1230  -12.8380 C   0  0  0  0  0  0  0  0  0  0  0  0
   16.5290   -0.2740  -12.7600 C   0  0  0  0  0  0  0  0  0  0  0  0
   14.3390   -0.0740  -11.6000 C   0  0  0  0  0  0  0  0  0  0  0  0
   14.3670    1.0560  -10.8090 O   0  0  0  0  0  0  0  0  0  0  0  0
   13.0980    1.4270  -10.0040 P   0  0  0  0  0  0  0  0  0  0  0  0
   12.9510    2.8340  -10.4370 O   0  0  0  0  0  0  0  0  0  0  0  0
   13.5200    1.3380   -8.4900 O   0  0  0  0  0  0  0  0  0  0  0  0
   11.9200    0.6000  -10.2150 O   0  0  0  0  0  0  0  0  0  0  0  0
    9.4120   -4.2680  -14.4910 N   0  0  0  0  0  0  0  0  0  0  0  0
    9.2640   -4.0310  -15.9230 C   0  0  1  0  0  0  0  0  0  0  0  0
   10.6520   -3.5830  -16.4240 C   0  0  0  0  0  0  0  0  0  0  0  0
   11.2950   -2.4670  -15.5890 C   0  0  0  0  0  0  0  0  0  0  0  0
   10.7190   -1.0990  -15.8570 C   0  0  0  0  0  0  0  0  0  0  0  0
   11.0970    0.0400  -14.9400 C   0  0  0  0  0  0  0  0  0  0  0  0
   12.4860    0.1210  -14.4880 N   0  0  0  0  0  0  0  0  0  0  0  0
    8.6040   -5.1550  -16.6990 C   0  0  0  0  0  0  0  0  0  0  0  0
    7.5910   -4.9070  -17.3910 O   0  0  0  0  0  0  0  0  0  0  0  0
  1  9  2  0  0  0  0
  2  1  1  0  0  0  0
  3  2  1  0  0  0  0
  4  2  2  0  0  0  0
  4  6  1  0  0  0  0
  5  4  1  0  0  0  0
  6  8  2  0  0  0  0
  7  6  1  0  0  0  0
  8  9  1  0  0  0  0
  8 10  1  0  0  0  0
 10 11  1  0  0  0  0
 11 12  1  0  0  0  0
 12 14  1  0  0  0  0
 13 12  2  0  0  0  0
 15 12  1  0  0  0  0
 17 16  1  1  0  0  0
 18 17  1  0  0  0  0
 18 19  1  0  0  0  0
 20 19  1  0  0  0  0
 20 21  1  0  0  0  0
 21 22  1  0  0  0  0
 22  7  1  0  0  0  0
 23 17  1  0  0  0  0
 24 23  2  0  0  0  0
M  END
$$$$
