1CS1_LLP.pdb
 OpenBabel08201720563D

 24 24  0  0  1  0  0  0  0  0999 V2000
   26.9390    0.4440   26.2540 N   0  0  0  0  0  0  0  0  0  0  0  0
   27.5000    0.0070   25.0500 C   0  0  0  0  0  0  0  0  0  0  0  0
   26.8860    0.6060   23.8000 C   0  0  0  0  0  0  0  0  0  0  0  0
   28.5710   -1.0100   25.1530 C   0  0  0  0  0  0  0  0  0  0  0  0
   29.0650   -1.3840   23.9700 O   0  0  0  0  0  0  0  0  0  0  0  0
   28.9810   -1.5070   26.4080 C   0  0  0  0  0  0  0  0  0  0  0  0
   30.1280   -2.4470   26.4410 C   0  0  0  0  0  0  0  0  0  0  0  0
   28.2570   -0.9680   27.6530 C   0  0  0  0  0  0  0  0  0  0  0  0
   27.2790   -0.0030   27.5270 C   0  0  0  0  0  0  0  0  0  0  0  0
   28.6250   -1.5560   29.0270 C   0  0  0  0  0  0  0  0  0  0  0  0
   29.7990   -0.9890   29.5170 O   0  0  0  0  0  0  0  0  0  0  0  0
   30.7820   -1.8800   30.4540 P   0  0  0  0  0  0  0  0  0  0  0  0
   31.9550   -1.0150   30.5770 O   0  0  0  0  0  0  0  0  0  0  0  0
   31.0440   -3.2080   29.7120 O   0  0  0  0  0  0  0  0  0  0  0  0
   30.0590   -2.1080   31.7110 O   0  0  0  0  0  0  0  0  0  0  0  0
   35.6500    0.6260   26.1360 N   0  0  0  0  0  0  0  0  0  0  0  0
   35.7650    0.4360   24.7120 C   0  0  1  0  0  0  0  0  0  0  0  0
   34.3630    0.5160   24.0960 C   0  0  0  0  0  0  0  0  0  0  0  0
   33.2980   -0.2990   24.8660 C   0  0  0  0  0  0  0  0  0  0  0  0
   33.6570   -1.7870   24.9510 C   0  0  0  0  0  0  0  0  0  0  0  0
   32.5450   -2.7190   25.5570 C   0  0  0  0  0  0  0  0  0  0  0  0
   31.2330   -2.0370   25.7370 N   0  0  0  0  0  0  0  0  0  0  0  0
   36.7440    1.4070   24.0510 C   0  0  0  0  0  0  0  0  0  0  0  0
   37.9400    1.3820   24.3490 O   0  0  0  0  0  0  0  0  0  0  0  0
  1  9  2  0  0  0  0
  2  4  2  0  0  0  0
  2  1  1  0  0  0  0
  3  2  1  0  0  0  0
  4  6  1  0  0  0  0
  5  4  1  0  0  0  0
  6  7  1  0  0  0  0
  6  8  2  0  0  0  0
  8 10  1  0  0  0  0
  9  8  1  0  0  0  0
 10 11  1  0  0  0  0
 11 12  1  0  0  0  0
 12 13  1  0  0  0  0
 12 15  1  0  0  0  0
 14 12  2  0  0  0  0
 17 16  1  1  0  0  0
 18 17  1  0  0  0  0
 18 19  1  0  0  0  0
 19 20  1  0  0  0  0
 20 21  1  0  0  0  0
 21 22  1  0  0  0  0
 22  7  1  0  0  0  0
 23 24  2  0  0  0  0
 23 17  1  0  0  0  0
M  END
$$$$
