1EH5_PLM.pdb
 OpenBabel08201720563D

 17 16  0  0  0  0  0  0  0  0999 V2000
   41.5000   11.2060   58.7700 C   0  0  0  0  0  0  0  0  0  0  0  0
   40.6500   12.0250   59.1710 O   0  0  0  0  0  0  0  0  0  0  0  0
   41.0780    9.7490   58.6990 C   0  0  0  0  0  0  0  0  0  0  0  0
   41.4450    8.9210   59.9310 C   0  0  0  0  0  0  0  0  0  0  0  0
   40.9660    7.4940   59.7190 C   0  0  0  0  0  0  0  0  0  0  0  0
   41.2540    6.5660   60.8860 C   0  0  0  0  0  0  0  0  0  0  0  0
   39.9890    5.8310   61.2880 C   0  0  0  0  0  0  0  0  0  0  0  0
   39.7730    4.6100   60.4120 C   0  0  0  0  0  0  0  0  0  0  0  0
   38.5120    3.8550   60.7690 C   0  0  0  0  0  0  0  0  0  0  0  0
   38.3720    2.6570   59.8490 C   0  0  0  0  0  0  0  0  0  0  0  0
   37.1260    1.8400   60.1230 C   0  0  0  0  0  0  0  0  0  0  0  0
   36.8630    0.8890   58.9680 C   0  0  0  0  0  0  0  0  0  0  0  0
   35.6240    0.0630   59.2050 C   0  0  0  0  0  0  0  0  0  0  0  0
   35.3560   -0.8830   58.0520 C   0  0  0  0  0  0  0  0  0  0  0  0
   34.0930   -1.6980   58.3110 C   0  0  0  0  0  0  0  0  0  0  0  0
   33.9310   -2.8460   57.3300 C   0  0  0  0  0  0  0  0  0  0  0  0
   32.6600   -3.6390   57.6160 C   0  0  0  0  0  0  0  0  0  0  0  0
  1  2  2  0  0  0  0
  3  1  1  0  0  0  0
  3  4  1  0  0  0  0
  5  4  1  0  0  0  0
  5  6  1  0  0  0  0
  6  7  1  0  0  0  0
  8  9  1  0  0  0  0
  8  7  1  0  0  0  0
 10 11  1  0  0  0  0
 10  9  1  0  0  0  0
 12 13  1  0  0  0  0
 12 11  1  0  0  0  0
 14 15  1  0  0  0  0
 14 13  1  0  0  0  0
 16 17  1  0  0  0  0
 16 15  1  0  0  0  0
M  END
$$$$
