1JGI_SUC.pdb
 OpenBabel08201720563D

 23 24  0  0  1  0  0  0  0  0999 V2000
   67.2380   24.7260   15.7280 C   0  0  1  0  0  0  0  0  0  0  0  0
   67.5570   24.5260   17.2380 C   0  0  1  0  0  0  0  0  0  0  0  0
   66.2200   24.6330   18.0500 C   0  0  2  0  0  0  0  0  0  0  0  0
   65.6880   26.0090   17.8540 C   0  0  1  0  0  0  0  0  0  0  0  0
   65.4130   26.2740   16.3800 C   0  0  1  0  0  0  0  0  0  0  0  0
   64.9540   27.6700   16.1630 C   0  0  0  0  0  0  0  0  0  0  0  0
   66.3440   23.6310   15.3290 O   0  0  0  0  0  0  0  0  0  0  0  0
   68.1700   23.2490   17.3840 O   0  0  0  0  0  0  0  0  0  0  0  0
   66.4750   24.4290   19.4210 O   0  0  0  0  0  0  0  0  0  0  0  0
   64.4430   26.1680   18.6100 O   0  0  0  0  0  0  0  0  0  0  0  0
   66.6290   26.0620   15.6040 O   0  0  0  0  0  0  0  0  0  0  0  0
   66.0800   28.5580   16.3520 O   0  0  0  0  0  0  0  0  0  0  0  0
   66.0210   24.4580   12.9450 C   0  0  0  0  0  0  0  0  0  0  0  0
   65.4790   23.6100   14.1110 C   0  0  1  0  0  0  0  0  0  0  0  0
   65.2670   22.0930   13.7740 C   0  0  2  0  0  0  0  0  0  0  0  0
   63.7650   21.9620   13.5500 C   0  0  1  0  0  0  0  0  0  0  0  0
   63.2120   23.0550   14.4720 C   0  0  1  0  0  0  0  0  0  0  0  0
   62.8610   22.6620   15.8930 C   0  0  0  0  0  0  0  0  0  0  0  0
   67.3430   24.0160   12.6130 O   0  0  0  0  0  0  0  0  0  0  0  0
   64.2080   24.0860   14.4850 O   0  0  0  0  0  0  0  0  0  0  0  0
   65.7300   21.2360   14.8010 O   0  0  0  0  0  0  0  0  0  0  0  0
   63.4480   22.1940   12.1720 O   0  0  0  0  0  0  0  0  0  0  0  0
   61.8040   21.7400   15.9540 O   0  0  0  0  0  0  0  0  0  0  0  0
  1  7  1  1  0  0  0
  1  2  1  0  0  0  0
  2  8  1  6  0  0  0
  2  3  1  0  0  0  0
  3  9  1  1  0  0  0
  4  3  1  0  0  0  0
  4 10  1  1  0  0  0
  5  6  1  1  0  0  0
  5  4  1  0  0  0  0
  6 12  1  0  0  0  0
 11  1  1  0  0  0  0
 11  5  1  0  0  0  0
 14 13  1  6  0  0  0
 14 20  1  0  0  0  0
 14  7  1  0  0  0  0
 15 14  1  1  0  0  0
 15 21  1  0  0  0  0
 16 22  1  6  0  0  0
 16 15  1  0  0  0  0
 16 17  1  0  0  0  0
 17 20  1  0  0  0  0
 17 18  1  1  0  0  0
 18 23  1  0  0  0  0
 19 13  1  0  0  0  0
M  END
$$$$
