1JLV_GSH.pdb
 OpenBabel08201720563D

 20 19  0  0  1  0  0  0  0  0999 V2000
   72.3450   19.8120   -0.7750 N   0  0  0  0  0  0  0  0  0  0  0  0
   73.4710   18.8930   -0.7560 C   0  0  2  0  0  0  0  0  0  0  0  0
   74.6510   19.3440   -1.6580 C   0  0  0  0  0  0  0  0  0  0  0  0
   75.7870   18.9090   -1.4170 O   0  0  0  0  0  0  0  0  0  0  0  0
   74.3740   20.1700   -2.6270 O   0  0  0  0  0  0  0  0  0  0  0  0
   72.9500   17.4810   -1.1360 C   0  0  0  0  0  0  0  0  0  0  0  0
   73.9110   16.3770   -0.6360 C   0  0  0  0  0  0  0  0  0  0  0  0
   73.3470   14.9790   -0.9770 C   0  0  0  0  0  0  0  0  0  0  0  0
   72.1480   14.8100   -1.2970 O   0  0  0  0  0  0  0  0  0  0  0  0
   74.2520   14.0040   -0.8630 N   0  0  0  0  0  0  0  0  0  0  0  0
   73.8940   12.6050   -1.1030 C   0  0  2  0  0  0  0  0  0  0  0  0
   74.3430   11.8050    0.1340 C   0  0  0  0  0  0  0  0  0  0  0  0
   75.4990   11.8670    0.5680 O   0  0  0  0  0  0  0  0  0  0  0  0
   74.6250   12.0570   -2.3490 C   0  0  0  0  0  0  0  0  0  0  0  0
   73.9220   12.6920   -3.8970 S   0  0  0  0  0  0  0  0  0  0  0  0
   73.3870   11.0290    0.7180 N   0  0  0  0  0  0  0  0  0  0  0  0
   73.5950   10.1720    1.9100 C   0  0  0  0  0  0  0  0  0  0  0  0
   73.3560   10.9240    3.2270 C   0  0  0  0  0  0  0  0  0  0  0  0
   73.5060   10.2520    4.2520 O   0  0  0  0  0  0  0  0  0  0  0  0
   73.0330   12.1440    3.2150 O   0  0  0  0  0  0  0  0  0  0  0  0
  2  1  1  6  0  0  0
  3  4  1  0  0  0  0
  3  2  1  0  0  0  0
  5  3  2  0  0  0  0
  6  2  1  0  0  0  0
  6  7  1  0  0  0  0
  8 10  1  0  0  0  0
  8  7  1  0  0  0  0
  9  8  2  0  0  0  0
 11 14  1  6  0  0  0
 11 10  1  0  0  0  0
 11 12  1  0  0  0  0
 12 13  2  0  0  0  0
 12 16  1  0  0  0  0
 15 14  1  0  0  0  0
 16 17  1  0  0  0  0
 17 18  1  0  0  0  0
 18 19  1  0  0  0  0
 20 18  2  0  0  0  0
M  END
$$$$
