1KMO_LDA.pdb
 OpenBabel08201720563D

 16 15  0  0  0  0  0  0  0  0999 V2000
    5.7740  -10.6740   23.1080 N   0  0  0  0  0  0  0  0  0  0  0  0
    4.9470   -9.8530   22.6420 O   0  0  0  0  0  0  0  0  0  0  0  0
    5.1140  -11.9520   23.3690 C   0  0  0  0  0  0  0  0  0  0  0  0
    6.7200  -11.0790   22.1150 C   0  0  0  0  0  0  0  0  0  0  0  0
    6.3520  -10.3270   24.4560 C   0  0  0  0  0  0  0  0  0  0  0  0
    5.8690   -8.9960   25.1240 C   0  0  0  0  0  0  0  0  0  0  0  0
    6.5940   -8.8320   26.5110 C   0  0  0  0  0  0  0  0  0  0  0  0
    6.3320   -7.4250   27.0330 C   0  0  0  0  0  0  0  0  0  0  0  0
    6.3820   -7.3420   28.5480 C   0  0  0  0  0  0  0  0  0  0  0  0
    6.3230   -5.8210   28.8640 C   0  0  0  0  0  0  0  0  0  0  0  0
    5.0540   -5.5350   29.6850 C   0  0  0  0  0  0  0  0  0  0  0  0
    5.1980   -4.2450   30.5340 C   0  0  0  0  0  0  0  0  0  0  0  0
    3.7970   -4.0270   31.0650 C   0  0  0  0  0  0  0  0  0  0  0  0
    3.8460   -3.5220   32.5020 C   0  0  0  0  0  0  0  0  0  0  0  0
    3.0940   -2.1960   32.5030 C   0  0  0  0  0  0  0  0  0  0  0  0
    3.1120   -1.6040   33.9030 C   0  0  0  0  0  0  0  0  0  0  0  0
  1  3  1  0  0  0  0
  1  5  1  0  0  0  0
  2  1  1  0  0  0  0
  4  1  1  0  0  0  0
  5  6  1  0  0  0  0
  6  7  1  0  0  0  0
  7  8  1  0  0  0  0
  8  9  1  0  0  0  0
  9 10  1  0  0  0  0
 10 11  1  0  0  0  0
 11 12  1  0  0  0  0
 12 13  1  0  0  0  0
 13 14  1  0  0  0  0
 14 15  1  0  0  0  0
 15 16  1  0  0  0  0
M  END
$$$$
