1KTA_PMP.pdb
 OpenBabel08201720563D

 16 16  0  0  0  0  0  0  0  0999 V2000
   -3.8310   43.8710   16.7150 N   0  0  0  0  0  0  0  0  0  0  0  0
   -3.5000   43.3830   17.9720 C   0  0  0  0  0  0  0  0  0  0  0  0
   -2.5080   44.1950   18.8100 C   0  0  0  0  0  0  0  0  0  0  0  0
   -4.0810   42.1780   18.4040 C   0  0  0  0  0  0  0  0  0  0  0  0
   -3.7720   41.6660   19.6210 O   0  0  0  0  0  0  0  0  0  0  0  0
   -4.9980   41.4870   17.5750 C   0  0  0  0  0  0  0  0  0  0  0  0
   -5.6450   40.1690   18.0940 C   0  0  0  0  0  0  0  0  0  0  0  0
   -4.8610   39.0990   17.7290 N   0  0  0  0  0  0  0  0  0  0  0  0
   -5.2940   42.0310   16.2970 C   0  0  0  0  0  0  0  0  0  0  0  0
   -4.7130   43.2090   15.8830 C   0  0  0  0  0  0  0  0  0  0  0  0
   -6.2080   41.3540   15.3330 C   0  0  0  0  0  0  0  0  0  0  0  0
   -5.6580   40.1450   14.8190 O   0  0  0  0  0  0  0  0  0  0  0  0
   -6.6890   38.9890   14.3520 P   0  0  0  0  0  0  0  0  0  0  0  0
   -7.3010   38.3820   15.5250 O   0  0  0  0  0  0  0  0  0  0  0  0
   -5.7340   37.9770   13.7250 O   0  0  0  0  0  0  0  0  0  0  0  0
   -7.5720   39.5190   13.3140 O   0  0  0  0  0  0  0  0  0  0  0  0
  1  2  2  0  0  0  0
  2  4  1  0  0  0  0
  2  3  1  0  0  0  0
  4  5  1  0  0  0  0
  6  7  1  0  0  0  0
  6  4  2  0  0  0  0
  8  7  1  0  0  0  0
  9  6  1  0  0  0  0
 10  9  2  0  0  0  0
 10  1  1  0  0  0  0
 11  9  1  0  0  0  0
 12 11  1  0  0  0  0
 13 12  1  0  0  0  0
 13 14  1  0  0  0  0
 15 13  1  0  0  0  0
 16 13  2  0  0  0  0
M  END
$$$$
