1O6U_PLM.pdb
 OpenBabel08201720563D

 18 17  0  0  0  0  0  0  0  0999 V2000
  -12.4030   25.9260   27.9730 C   0  0  0  0  0  0  0  0  0  0  0  0
  -12.5810   27.0880   28.3980 O   0  0  0  0  0  0  0  0  0  0  0  0
  -12.5410   25.6230   26.7650 O   0  0  0  0  0  0  0  0  0  0  0  0
  -12.0020   24.8440   28.9750 C   0  0  0  0  0  0  0  0  0  0  0  0
  -10.5330   24.4320   28.8820 C   0  0  0  0  0  0  0  0  0  0  0  0
  -10.2080   23.3510   29.9150 C   0  0  0  0  0  0  0  0  0  0  0  0
   -8.7510   22.8970   29.8610 C   0  0  0  0  0  0  0  0  0  0  0  0
   -8.5360   21.9580   28.7030 C   0  0  0  0  0  0  0  0  0  0  0  0
   -7.8050   20.6840   29.0870 C   0  0  0  0  0  0  0  0  0  0  0  0
   -7.6930   19.8370   27.8440 C   0  0  0  0  0  0  0  0  0  0  0  0
   -6.9930   18.5000   28.0480 C   0  0  0  0  0  0  0  0  0  0  0  0
   -6.9600   17.7190   26.7330 C   0  0  0  0  0  0  0  0  0  0  0  0
   -8.3740   17.3710   26.2530 C   0  0  0  0  0  0  0  0  0  0  0  0
   -8.3760   16.6070   24.9400 C   0  0  0  0  0  0  0  0  0  0  0  0
   -9.7950   16.2860   24.4950 C   0  0  0  0  0  0  0  0  0  0  0  0
   -9.8320   15.5220   23.1680 C   0  0  0  0  0  0  0  0  0  0  0  0
  -10.6690   16.2480   22.1190 C   0  0  0  0  0  0  0  0  0  0  0  0
  -10.7050   15.4900   20.8000 C   0  0  0  0  0  0  0  0  0  0  0  0
  1  2  1  0  0  0  0
  1  4  1  0  0  0  0
  3  1  2  0  0  0  0
  5  4  1  0  0  0  0
  5  6  1  0  0  0  0
  7  6  1  0  0  0  0
  8  9  1  0  0  0  0
  8  7  1  0  0  0  0
 10 11  1  0  0  0  0
 10  9  1  0  0  0  0
 12 11  1  0  0  0  0
 13 12  1  0  0  0  0
 14 13  1  0  0  0  0
 15 14  1  0  0  0  0
 16 15  1  0  0  0  0
 17 16  1  0  0  0  0
 18 17  1  0  0  0  0
M  END
$$$$
