1P91_SAM.pdb
 OpenBabel08201720563D

 27 29  0  0  1  0  0  0  0  0999 V2000
   24.6500   28.6250   42.8880 N   0  0  0  0  0  0  0  0  0  0  0  0
   23.5890   28.0780   42.0600 C   0  0  2  0  0  0  0  0  0  0  0  0
   24.1110   27.6990   40.6340 C   0  0  0  0  0  0  0  0  0  0  0  0
   25.3100   27.7670   40.3570 O   0  0  0  0  0  0  0  0  0  0  0  0
   23.3380   27.2980   39.7570 O   0  0  0  0  0  0  0  0  0  0  0  0
   22.4410   29.1400   42.1220 C   0  0  0  0  0  0  0  0  0  0  0  0
   22.1620   30.0010   40.8370 C   0  0  0  0  0  0  0  0  0  0  0  0
   21.1170   31.4610   41.2850 S   0  0  1  0  0  0  0  0  0  0  0  0
   20.8850   32.4880   39.8150 C   0  0  0  0  0  0  0  0  0  0  0  0
   19.3930   30.9250   41.7280 C   0  0  0  0  0  0  0  0  0  0  0  0
   19.1590   29.3900   41.9080 C   0  0  1  0  0  0  0  0  0  0  0  0
   18.2130   29.1510   42.9780 O   0  0  0  0  0  0  0  0  0  0  0  0
   18.5530   28.6810   40.6710 C   0  0  1  0  0  0  0  0  0  0  0  0
   19.6050   28.2680   39.7680 O   0  0  0  0  0  0  0  0  0  0  0  0
   17.7450   27.4890   41.2530 C   0  0  1  0  0  0  0  0  0  0  0  0
   18.4520   26.2200   41.1880 O   0  0  0  0  0  0  0  0  0  0  0  0
   17.3630   27.9640   42.7020 C   0  0  2  0  0  0  0  0  0  0  0  0
   15.9200   28.2910   42.8350 N   0  0  0  0  0  0  0  0  0  0  0  0
   15.0590   29.2770   42.1840 C   0  0  0  0  0  0  0  0  0  0  0  0
   13.9000   29.0390   42.8000 N   0  0  0  0  0  0  0  0  0  0  0  0
   13.9000   28.0860   43.6990 C   0  0  0  0  0  0  0  0  0  0  0  0
   12.8230   27.5720   44.5820 C   0  0  0  0  0  0  0  0  0  0  0  0
   11.4990   28.1460   44.5410 N   0  0  0  0  0  0  0  0  0  0  0  0
   13.1470   26.5880   45.3830 N   0  0  0  0  0  0  0  0  0  0  0  0
   14.5060   26.0200   45.4250 C   0  0  0  0  0  0  0  0  0  0  0  0
   15.4670   26.5310   44.6160 N   0  0  0  0  0  0  0  0  0  0  0  0
   15.1270   27.5390   43.7940 C   0  0  0  0  0  0  0  0  0  0  0  0
  2  6  1  0  0  0  0
  2  1  1  1  0  0  0
  3  2  1  0  0  0  0
  4  3  1  0  0  0  0
  5  3  2  0  0  0  0
  7  8  1  0  0  0  0
  7  6  1  0  0  0  0
  8  9  1  6  0  0  0
  8 10  1  0  0  0  0
 11 10  1  6  0  0  0
 11 12  1  0  0  0  0
 13 14  1  6  0  0  0
 13 15  1  0  0  0  0
 13 11  1  0  0  0  0
 15 16  1  1  0  0  0
 15 17  1  0  0  0  0
 17 18  1  6  0  0  0
 17 12  1  0  0  0  0
 18 27  1  0  0  0  0
 19 20  2  0  0  0  0
 19 18  1  0  0  0  0
 20 21  1  0  0  0  0
 21 27  2  0  0  0  0
 21 22  1  0  0  0  0
 22 24  2  0  0  0  0
 23 22  1  0  0  0  0
 24 25  1  0  0  0  0
 26 25  2  0  0  0  0
 27 26  1  0  0  0  0
M  END
$$$$
