1QZZ_SAM.pdb
 OpenBabel08201720563D

 27 29  0  0  1  0  0  0  0  0999 V2000
   25.2000   30.7610   44.3430 N   0  0  0  0  0  0  0  0  0  0  0  0
   24.7130   31.3090   43.0530 C   0  0  2  0  0  0  0  0  0  0  0  0
   25.0750   32.7840   42.9150 C   0  0  0  0  0  0  0  0  0  0  0  0
   25.9510   33.2940   43.6440 O   0  0  0  0  0  0  0  0  0  0  0  0
   24.4190   33.4310   42.0430 O   0  0  0  0  0  0  0  0  0  0  0  0
   23.1950   31.1150   42.9060 C   0  0  0  0  0  0  0  0  0  0  0  0
   22.8050   30.7300   41.5140 C   0  0  0  0  0  0  0  0  0  0  0  0
   20.9890   30.7260   41.2770 S   0  0  2  0  0  0  0  0  0  0  0  0
   20.3710   32.2390   42.0190 C   0  0  0  0  0  0  0  0  0  0  0  0
   20.4750   29.4520   42.4090 C   0  0  0  0  0  0  0  0  0  0  0  0
   21.1760   28.1060   42.3040 C   0  0  1  0  0  0  0  0  0  0  0  0
   20.5640   27.1030   43.1750 O   0  0  0  0  0  0  0  0  0  0  0  0
   21.0970   27.5960   40.8450 C   0  0  1  0  0  0  0  0  0  0  0  0
   22.4210   27.4470   40.2910 O   0  0  0  0  0  0  0  0  0  0  0  0
   20.4610   26.2080   40.9730 C   0  0  1  0  0  0  0  0  0  0  0  0
   21.0420   25.1990   40.1410 O   0  0  0  0  0  0  0  0  0  0  0  0
   20.7360   25.9260   42.4460 C   0  0  2  0  0  0  0  0  0  0  0  0
   19.8570   24.8970   42.9330 N   0  0  0  0  0  0  0  0  0  0  0  0
   18.4940   24.8620   42.8510 C   0  0  0  0  0  0  0  0  0  0  0  0
   18.0660   23.7620   43.4190 N   0  0  0  0  0  0  0  0  0  0  0  0
   19.1490   23.0380   43.8930 C   0  0  0  0  0  0  0  0  0  0  0  0
   19.2970   21.8100   44.5840 C   0  0  0  0  0  0  0  0  0  0  0  0
   18.2430   21.0400   44.9160 N   0  0  0  0  0  0  0  0  0  0  0  0
   20.5440   21.4000   44.8740 N   0  0  0  0  0  0  0  0  0  0  0  0
   21.5510   22.1850   44.5200 C   0  0  0  0  0  0  0  0  0  0  0  0
   21.5030   23.3640   43.8910 N   0  0  0  0  0  0  0  0  0  0  0  0
   20.2570   23.7590   43.5710 C   0  0  0  0  0  0  0  0  0  0  0  0
  2  1  1  1  0  0  0
  3  2  1  0  0  0  0
  3  4  1  0  0  0  0
  5  3  2  0  0  0  0
  6  2  1  0  0  0  0
  7  6  1  0  0  0  0
  8  7  1  0  0  0  0
  8  9  1  1  0  0  0
  8 10  1  0  0  0  0
 11 10  1  6  0  0  0
 11 12  1  0  0  0  0
 13 14  1  1  0  0  0
 13 15  1  0  0  0  0
 13 11  1  0  0  0  0
 15 16  1  6  0  0  0
 15 17  1  0  0  0  0
 17 18  1  1  0  0  0
 17 12  1  0  0  0  0
 18 27  1  0  0  0  0
 19 18  1  0  0  0  0
 19 20  2  0  0  0  0
 20 21  1  0  0  0  0
 21 22  2  0  0  0  0
 22 24  1  0  0  0  0
 22 23  1  0  0  0  0
 25 24  2  0  0  0  0
 26 25  1  0  0  0  0
 27 26  2  0  0  0  0
 27 21  1  0  0  0  0
M  END
$$$$
