1Y1A_GSH.pdb
 OpenBabel08201720563D

 20 19  0  0  1  0  0  0  0  0999 V2000
    7.2020   74.2730  121.6840 N   0  0  0  0  0  0  0  0  0  0  0  0
    6.1410   75.2090  122.1410 C   0  0  2  0  0  0  0  0  0  0  0  0
    5.9050   75.0150  123.6110 C   0  0  0  0  0  0  0  0  0  0  0  0
    6.3700   73.9750  124.1720 O   0  0  0  0  0  0  0  0  0  0  0  0
    5.2530   75.9140  124.2240 O   0  0  0  0  0  0  0  0  0  0  0  0
    4.8480   75.0020  121.3290 C   0  0  0  0  0  0  0  0  0  0  0  0
    4.9960   75.3120  119.8290 C   0  0  0  0  0  0  0  0  0  0  0  0
    5.1310   74.0620  118.9820 C   0  0  0  0  0  0  0  0  0  0  0  0
    6.2730   73.5550  118.8320 O   0  0  0  0  0  0  0  0  0  0  0  0
    4.0060   73.5600  118.4210 N   0  0  0  0  0  0  0  0  0  0  0  0
    3.9660   72.3700  117.5970 C   0  0  2  0  0  0  0  0  0  0  0  0
    4.4440   72.5030  116.1670 C   0  0  0  0  0  0  0  0  0  0  0  0
    4.6510   73.6290  115.7280 O   0  0  0  0  0  0  0  0  0  0  0  0
    2.5200   71.8440  117.6140 C   0  0  0  0  0  0  0  0  0  0  0  0
    2.3420   70.1720  117.1760 S   0  0  0  0  0  0  0  0  0  0  0  0
    4.6170   71.3990  115.4470 N   0  0  0  0  0  0  0  0  0  0  0  0
    5.0700   71.3320  114.0600 C   0  0  0  0  0  0  0  0  0  0  0  0
    3.8500   71.2130  113.0860 C   0  0  0  0  0  0  0  0  0  0  0  0
    4.1000   70.9610  111.8980 O   0  0  0  0  0  0  0  0  0  0  0  0
    2.6910   71.3800  113.5390 O   0  0  0  0  0  0  0  0  0  0  0  0
  2  1  1  6  0  0  0
  2  3  1  0  0  0  0
  3  4  2  0  0  0  0
  3  5  1  0  0  0  0
  6  2  1  0  0  0  0
  7  6  1  0  0  0  0
  8  7  1  0  0  0  0
  9  8  2  0  0  0  0
 10  8  1  0  0  0  0
 11 14  1  6  0  0  0
 11 10  1  0  0  0  0
 12 11  1  0  0  0  0
 13 12  2  0  0  0  0
 15 14  1  0  0  0  0
 16 12  1  0  0  0  0
 17 16  1  0  0  0  0
 18 20  1  0  0  0  0
 18 17  1  0  0  0  0
 19 18  2  0  0  0  0
M  END
$$$$
