2CJG_PMP.pdb
 OpenBabel08201720563D

 16 16  0  0  0  0  0  0  0  0999 V2000
  -21.6820  -33.3840   37.3860 N   0  0  0  0  0  0  0  0  0  0  0  0
  -22.6840  -33.3260   36.4310 C   0  0  0  0  0  0  0  0  0  0  0  0
  -22.3340  -33.1770   34.9540 C   0  0  0  0  0  0  0  0  0  0  0  0
  -24.0340  -33.4160   36.8630 C   0  0  0  0  0  0  0  0  0  0  0  0
  -25.0210  -33.3490   35.9230 O   0  0  0  0  0  0  0  0  0  0  0  0
  -24.3600  -33.5720   38.2340 C   0  0  0  0  0  0  0  0  0  0  0  0
  -25.8120  -33.7260   38.7400 C   0  0  0  0  0  0  0  0  0  0  0  0
  -26.8790  -33.3440   37.8210 N   0  0  0  0  0  0  0  0  0  0  0  0
  -23.3170  -33.6270   39.1670 C   0  0  0  0  0  0  0  0  0  0  0  0
  -21.9790  -33.6060   38.7310 C   0  0  0  0  0  0  0  0  0  0  0  0
  -23.6070  -33.7420   40.6600 C   0  0  0  0  0  0  0  0  0  0  0  0
  -24.1160  -35.0480   40.9080 O   0  0  0  0  0  0  0  0  0  0  0  0
  -24.8860  -35.3080   42.3290 P   0  0  0  0  0  0  0  0  0  0  0  0
  -24.0470  -34.5870   43.3930 O   0  0  0  0  0  0  0  0  0  0  0  0
  -25.0230  -36.7990   42.5800 O   0  0  0  0  0  0  0  0  0  0  0  0
  -26.2400  -34.6120   42.2680 O   0  0  0  0  0  0  0  0  0  0  0  0
  1 10  2  0  0  0  0
  2  4  2  0  0  0  0
  2  1  1  0  0  0  0
  3  2  1  0  0  0  0
  4  6  1  0  0  0  0
  5  4  1  0  0  0  0
  6  7  1  0  0  0  0
  6  9  2  0  0  0  0
  8  7  1  0  0  0  0
  9 11  1  0  0  0  0
 10  9  1  0  0  0  0
 11 12  1  0  0  0  0
 12 13  1  0  0  0  0
 13 15  1  0  0  0  0
 13 14  1  0  0  0  0
 16 13  2  0  0  0  0
M  END
$$$$
