2E7U_PMP.pdb
 OpenBabel08201720563D

 16 16  0  0  0  0  0  0  0  0999 V2000
   16.6370   30.0040   47.3090 N   0  0  0  0  0  0  0  0  0  0  0  0
   15.7880   29.9400   46.2550 C   0  0  0  0  0  0  0  0  0  0  0  0
   16.3360   29.8840   44.8460 C   0  0  0  0  0  0  0  0  0  0  0  0
   14.3870   29.9220   46.4650 C   0  0  0  0  0  0  0  0  0  0  0  0
   13.5190   29.8550   45.4160 O   0  0  0  0  0  0  0  0  0  0  0  0
   13.8950   29.9750   47.7940 C   0  0  0  0  0  0  0  0  0  0  0  0
   12.3890   29.9570   48.0470 C   0  0  0  0  0  0  0  0  0  0  0  0
   11.7670   31.1650   47.4790 N   0  0  0  0  0  0  0  0  0  0  0  0
   14.8250   30.0420   48.8770 C   0  0  0  0  0  0  0  0  0  0  0  0
   16.2060   30.0540   48.5910 C   0  0  0  0  0  0  0  0  0  0  0  0
   14.3120   30.0930   50.2990 C   0  0  0  0  0  0  0  0  0  0  0  0
   13.9700   28.7580   50.6880 O   0  0  0  0  0  0  0  0  0  0  0  0
   13.3980   28.7700   52.2020 P   0  0  0  0  0  0  0  0  0  0  0  0
   12.1780   29.6210   52.2460 O   0  0  0  0  0  0  0  0  0  0  0  0
   13.0210   27.2570   52.6300 O   0  0  0  0  0  0  0  0  0  0  0  0
   14.4810   29.3620   53.2330 O   0  0  0  0  0  0  0  0  0  0  0  0
  1 10  2  0  0  0  0
  2  4  2  0  0  0  0
  2  1  1  0  0  0  0
  3  2  1  0  0  0  0
  4  6  1  0  0  0  0
  5  4  1  0  0  0  0
  6  7  1  0  0  0  0
  6  9  2  0  0  0  0
  8  7  1  0  0  0  0
  9 11  1  0  0  0  0
 10  9  1  0  0  0  0
 11 12  1  0  0  0  0
 12 13  1  0  0  0  0
 13 14  2  0  0  0  0
 13 15  1  0  0  0  0
 13 16  1  0  0  0  0
M  END
$$$$
