2HD0_BOG.pdb
 OpenBabel08201720563D

 20 20  0  0  1  0  0  0  0  0999 V2000
   -2.7890   -3.5610   30.1650 C   0  0  1  0  0  0  0  0  0  0  0  0
   -1.9050   -2.7150   29.4150 O   0  0  0  0  0  0  0  0  0  0  0  0
   -3.3360   -2.7990   31.3930 C   0  0  2  0  0  0  0  0  0  0  0  0
   -2.2670   -2.3820   32.2250 O   0  0  0  0  0  0  0  0  0  0  0  0
   -4.3010   -3.6980   32.1760 C   0  0  1  0  0  0  0  0  0  0  0  0
   -4.8160   -3.0000   33.2900 O   0  0  0  0  0  0  0  0  0  0  0  0
   -5.4470   -4.1250   31.2540 C   0  0  2  0  0  0  0  0  0  0  0  0
   -6.3640   -4.9490   31.9550 O   0  0  0  0  0  0  0  0  0  0  0  0
   -4.8600   -4.8800   30.0330 C   0  0  2  0  0  0  0  0  0  0  0  0
   -3.9100   -4.0080   29.3380 O   0  0  0  0  0  0  0  0  0  0  0  0
   -5.9700   -5.3080   29.0850 C   0  0  0  0  0  0  0  0  0  0  0  0
   -5.6900   -6.6000   28.5760 O   0  0  0  0  0  0  0  0  0  0  0  0
   -0.5080   -2.8890   29.6910 C   0  0  0  0  0  0  0  0  0  0  0  0
    0.2150   -1.7750   28.9630 C   0  0  0  0  0  0  0  0  0  0  0  0
    1.6380   -2.1620   28.6150 C   0  0  0  0  0  0  0  0  0  0  0  0
    2.3420   -1.0380   27.8750 C   0  0  0  0  0  0  0  0  0  0  0  0
    3.7740   -1.3990   27.5160 C   0  0  0  0  0  0  0  0  0  0  0  0
    3.8840   -1.9820   26.1150 C   0  0  0  0  0  0  0  0  0  0  0  0
    5.3250   -2.3350   25.7970 C   0  0  0  0  0  0  0  0  0  0  0  0
    5.4600   -2.9270   24.4060 C   0  0  0  0  0  0  0  0  0  0  0  0
  1  2  1  6  0  0  0
  1  3  1  0  0  0  0
  2 13  1  0  0  0  0
  3  5  1  0  0  0  0
  3  4  1  1  0  0  0
  5  6  1  1  0  0  0
  7  8  1  1  0  0  0
  7  5  1  0  0  0  0
  9 11  1  6  0  0  0
  9  7  1  0  0  0  0
 10  9  1  0  0  0  0
 10  1  1  0  0  0  0
 12 11  1  0  0  0  0
 14 13  1  0  0  0  0
 15 14  1  0  0  0  0
 16 15  1  0  0  0  0
 17 16  1  0  0  0  0
 18 17  1  0  0  0  0
 19 18  1  0  0  0  0
 20 19  1  0  0  0  0
M  END
$$$$
