2J4J_U5P.pdb
 OpenBabel08201720563D

 21 22  0  0  1  0  0  0  0  0999 V2000
   64.7020   40.5050   55.7670 N   0  0  0  0  0  0  0  0  0  0  0  0
   63.8820   41.6100   55.4900 C   0  0  0  0  0  0  0  0  0  0  0  0
   64.4200   42.6770   54.8920 N   0  0  0  0  0  0  0  0  0  0  0  0
   65.7270   42.7330   54.5710 C   0  0  0  0  0  0  0  0  0  0  0  0
   66.5600   41.6470   54.8350 C   0  0  0  0  0  0  0  0  0  0  0  0
   66.0140   40.5400   55.4730 C   0  0  0  0  0  0  0  0  0  0  0  0
   62.6590   41.5620   55.7910 O   0  0  0  0  0  0  0  0  0  0  0  0
   66.1820   43.7770   54.0540 O   0  0  0  0  0  0  0  0  0  0  0  0
   64.0570   39.3970   56.4770 C   0  0  1  0  0  0  0  0  0  0  0  0
   63.3560   38.3120   55.6910 C   0  0  2  0  0  0  0  0  0  0  0  0
   62.2770   37.8130   56.5040 O   0  0  0  0  0  0  0  0  0  0  0  0
   64.4500   37.2810   55.5120 C   0  0  1  0  0  0  0  0  0  0  0  0
   65.1710   37.3610   56.8490 C   0  0  2  0  0  0  0  0  0  0  0  0
   63.9600   36.0010   55.1480 O   0  0  0  0  0  0  0  0  0  0  0  0
   65.0500   38.7440   57.2650 O   0  0  0  0  0  0  0  0  0  0  0  0
   66.6510   36.9690   56.8180 C   0  0  0  0  0  0  0  0  0  0  0  0
   67.3340   37.3830   55.6380 O   0  0  0  0  0  0  0  0  0  0  0  0
   67.8680   36.3270   54.4950 P   0  0  0  0  0  0  0  0  0  0  0  0
   66.7990   35.2800   54.3890 O   0  0  0  0  0  0  0  0  0  0  0  0
   67.9250   37.1580   53.2390 O   0  0  0  0  0  0  0  0  0  0  0  0
   69.1600   35.7010   54.9840 O   0  0  0  0  0  0  0  0  0  0  0  0
  2  1  1  0  0  0  0
  2  7  2  0  0  0  0
  3  2  1  0  0  0  0
  4  5  1  0  0  0  0
  4  3  1  0  0  0  0
  5  6  2  0  0  0  0
  6  1  1  0  0  0  0
  8  4  2  0  0  0  0
  9  1  1  6  0  0  0
  9 15  1  0  0  0  0
 10  9  1  0  0  0  0
 10 11  1  1  0  0  0
 12 14  1  1  0  0  0
 12 10  1  0  0  0  0
 12 13  1  0  0  0  0
 13 16  1  6  0  0  0
 13 15  1  0  0  0  0
 17 16  1  0  0  0  0
 18 21  1  0  0  0  0
 18 17  1  0  0  0  0
 19 18  1  0  0  0  0
 20 18  2  0  0  0  0
M  END
$$$$
