2Z73_BOG.pdb
 OpenBabel08201720563D

 20 20  0  0  1  0  0  0  0  0999 V2000
   12.2330   44.4390   90.6670 C   0  0  1  0  0  0  0  0  0  0  0  0
   13.0930   44.4510   89.6100 O   0  0  0  0  0  0  0  0  0  0  0  0
   12.5950   43.1230   91.3060 C   0  0  2  0  0  0  0  0  0  0  0  0
   12.3730   41.9610   90.4180 O   0  0  0  0  0  0  0  0  0  0  0  0
   11.6910   43.1130   92.4540 C   0  0  1  0  0  0  0  0  0  0  0  0
   12.0260   41.9170   93.0590 O   0  0  0  0  0  0  0  0  0  0  0  0
   11.9570   44.3810   93.3640 C   0  0  2  0  0  0  0  0  0  0  0  0
   11.1020   44.3780   94.4640 O   0  0  0  0  0  0  0  0  0  0  0  0
   11.6030   45.6380   92.6890 C   0  0  2  0  0  0  0  0  0  0  0  0
   12.4830   45.6240   91.5710 O   0  0  0  0  0  0  0  0  0  0  0  0
   11.8820   46.9130   93.5920 C   0  0  0  0  0  0  0  0  0  0  0  0
   11.4770   48.1710   92.8280 O   0  0  0  0  0  0  0  0  0  0  0  0
   12.2540   44.9740   88.6190 C   0  0  0  0  0  0  0  0  0  0  0  0
   13.2190   45.3220   87.6000 C   0  0  0  0  0  0  0  0  0  0  0  0
   12.7090   44.5630   86.4230 C   0  0  0  0  0  0  0  0  0  0  0  0
   13.9320   44.1710   85.8140 C   0  0  0  0  0  0  0  0  0  0  0  0
   13.5240   43.7150   84.4630 C   0  0  0  0  0  0  0  0  0  0  0  0
   14.5480   42.7610   84.1740 C   0  0  0  0  0  0  0  0  0  0  0  0
   14.1040   42.2510   82.8640 C   0  0  0  0  0  0  0  0  0  0  0  0
   14.6670   40.9390   82.8700 C   0  0  0  0  0  0  0  0  0  0  0  0
  1  2  1  6  0  0  0
  1  3  1  0  0  0  0
  1 10  1  0  0  0  0
  3  4  1  6  0  0  0
  3  5  1  0  0  0  0
  5  6  1  1  0  0  0
  5  7  1  0  0  0  0
  7  8  1  1  0  0  0
  9  7  1  0  0  0  0
  9 11  1  1  0  0  0
 10  9  1  0  0  0  0
 12 11  1  0  0  0  0
 13  2  1  0  0  0  0
 14 13  1  0  0  0  0
 15 14  1  0  0  0  0
 16 15  1  0  0  0  0
 17 16  1  0  0  0  0
 18 17  1  0  0  0  0
 19 20  1  0  0  0  0
 19 18  1  0  0  0  0
M  END
$$$$
