1B56_PLM.pdb
 OpenBabel08201721043D

 18 17  0  0  0  0  0  0  0  0999 V2000
   46.9440   22.4560   32.6530 C   0  0  0  0  0  0  0  0  0  0  0  0
   47.6130   21.6520   32.0150 O   0  0  0  0  0  0  0  0  0  0  0  0
   45.7460   22.2220   32.7550 O   0  0  0  0  0  0  0  0  0  0  0  0
   47.4950   23.6320   33.1280 C   0  0  0  0  0  0  0  0  0  0  0  0
   47.4530   24.6280   32.1700 C   0  0  0  0  0  0  0  0  0  0  0  0
   48.6580   24.6830   31.5030 C   0  0  0  0  0  0  0  0  0  0  0  0
   48.3540   25.0960   30.2210 C   0  0  0  0  0  0  0  0  0  0  0  0
   49.0230   26.2680   29.9430 C   0  0  0  0  0  0  0  0  0  0  0  0
   48.9680   26.4820   28.5830 C   0  0  0  0  0  0  0  0  0  0  0  0
   47.7520   27.0350   28.2800 C   0  0  0  0  0  0  0  0  0  0  0  0
   47.9110   27.5620   27.0260 C   0  0  0  0  0  0  0  0  0  0  0  0
   46.7070   28.1150   26.6530 C   0  0  0  0  0  0  0  0  0  0  0  0
   46.1320   27.2050   25.8000 C   0  0  0  0  0  0  0  0  0  0  0  0
   44.9410   27.7410   25.3400 C   0  0  0  0  0  0  0  0  0  0  0  0
   44.3090   26.8400   24.4940 C   0  0  0  0  0  0  0  0  0  0  0  0
   43.5990   25.9230   25.2540 C   0  0  0  0  0  0  0  0  0  0  0  0
   44.2780   24.7150   25.2800 C   0  0  0  0  0  0  0  0  0  0  0  0
   43.6350   23.8680   26.1590 C   0  0  0  0  0  0  0  0  0  0  0  0
  1  3  1  0  0  0  0
  1  4  1  0  0  0  0
  2  1  2  0  0  0  0
  5  4  1  0  0  0  0
  6  5  1  0  0  0  0
  7  6  1  0  0  0  0
  8  7  1  0  0  0  0
  9  8  1  0  0  0  0
 10  9  1  0  0  0  0
 11 10  1  0  0  0  0
 12 11  1  0  0  0  0
 13 12  1  0  0  0  0
 14 13  1  0  0  0  0
 15 16  1  0  0  0  0
 15 14  1  0  0  0  0
 16 17  1  0  0  0  0
 17 18  1  0  0  0  0
M  END
$$$$
