1BJW_LLP.pdb
 OpenBabel08201721043D

 24 24  0  0  1  0  0  0  0  0999 V2000
   31.0550   47.4930   62.4920 N   0  0  0  0  0  0  0  0  0  0  0  0
   31.4520   47.1980   61.2130 C   0  0  0  0  0  0  0  0  0  0  0  0
   32.1700   45.8980   60.9460 C   0  0  0  0  0  0  0  0  0  0  0  0
   31.2210   48.0920   60.1800 C   0  0  0  0  0  0  0  0  0  0  0  0
   31.6270   47.7770   58.9590 O   0  0  0  0  0  0  0  0  0  0  0  0
   30.5810   49.2910   60.4540 C   0  0  0  0  0  0  0  0  0  0  0  0
   30.2520   50.2870   59.3500 C   0  0  0  0  0  0  0  0  0  0  0  0
   30.1930   49.5740   61.8030 C   0  0  0  0  0  0  0  0  0  0  0  0
   30.4430   48.6640   62.7910 C   0  0  0  0  0  0  0  0  0  0  0  0
   29.4500   50.8540   62.2060 C   0  0  0  0  0  0  0  0  0  0  0  0
   29.7390   52.1340   61.5170 O   0  0  0  0  0  0  0  0  0  0  0  0
   29.0730   53.5000   61.8700 P   0  0  0  0  0  0  0  0  0  0  0  0
   27.6680   53.2310   62.3170 O   0  0  0  0  0  0  0  0  0  0  0  0
   29.0430   54.2510   60.4460 O   0  0  0  0  0  0  0  0  0  0  0  0
   30.0630   54.0980   62.7370 O   0  0  0  0  0  0  0  0  0  0  0  0
   24.8110   50.9090   57.5290 N   0  0  0  0  0  0  0  0  0  0  0  0
   24.8830   50.0230   56.3630 C   0  0  1  0  0  0  0  0  0  0  0  0
   25.7240   48.8070   56.7260 C   0  0  0  0  0  0  0  0  0  0  0  0
   27.0470   49.1790   57.4460 C   0  0  0  0  0  0  0  0  0  0  0  0
   28.0340   49.9110   56.5040 C   0  0  0  0  0  0  0  0  0  0  0  0
   29.0800   50.7670   57.2680 C   0  0  0  0  0  0  0  0  0  0  0  0
   29.5930   49.8880   58.2830 N   0  0  0  0  0  0  0  0  0  0  0  0
   23.5260   49.6070   55.7940 C   0  0  0  0  0  0  0  0  0  0  0  0
   23.3560   49.5040   54.5890 O   0  0  0  0  0  0  0  0  0  0  0  0
  1  9  1  0  0  0  0
  2  1  2  0  0  0  0
  3  2  1  0  0  0  0
  4  6  2  0  0  0  0
  4  2  1  0  0  0  0
  5  4  1  0  0  0  0
  6  8  1  0  0  0  0
  7  6  1  0  0  0  0
  8 10  1  0  0  0  0
  8  9  2  0  0  0  0
 11 12  1  0  0  0  0
 11 10  1  0  0  0  0
 12 13  1  0  0  0  0
 12 15  1  0  0  0  0
 14 12  2  0  0  0  0
 17 18  1  0  0  0  0
 17 16  1  1  0  0  0
 18 19  1  0  0  0  0
 20 21  1  0  0  0  0
 20 19  1  0  0  0  0
 21 22  1  0  0  0  0
 22  7  2  0  0  0  0
 23 17  1  0  0  0  0
 24 23  2  0  0  0  0
M  END
$$$$
