1C8U_LDA.pdb
 OpenBabel08201721043D

 16 15  0  0  0  0  0  0  0  0999 V2000
   37.4850   44.9440   57.6590 N   0  0  0  0  0  0  0  0  0  0  0  0
   38.6860   44.7590   57.4030 O   0  0  0  0  0  0  0  0  0  0  0  0
   37.3330   45.7780   58.8430 C   0  0  0  0  0  0  0  0  0  0  0  0
   36.9710   45.8970   56.7060 C   0  0  0  0  0  0  0  0  0  0  0  0
   36.6570   43.7370   57.9380 C   0  0  0  0  0  0  0  0  0  0  0  0
   37.4060   42.3800   57.8580 C   0  0  0  0  0  0  0  0  0  0  0  0
   36.3920   41.2350   58.1980 C   0  0  0  0  0  0  0  0  0  0  0  0
   36.6870   40.0360   57.3090 C   0  0  0  0  0  0  0  0  0  0  0  0
   36.7410   38.7360   58.0920 C   0  0  0  0  0  0  0  0  0  0  0  0
   37.0240   37.6400   57.0290 C   0  0  0  0  0  0  0  0  0  0  0  0
   38.4930   37.2120   57.1540 C   0  0  0  0  0  0  0  0  0  0  0  0
   38.8620   36.1020   56.1400 C   0  0  0  0  0  0  0  0  0  0  0  0
   39.5920   36.8710   55.0540 C   0  0  0  0  0  0  0  0  0  0  0  0
   40.0390   35.9310   53.9350 C   0  0  0  0  0  0  0  0  0  0  0  0
   41.4240   35.4390   54.3370 C   0  0  0  0  0  0  0  0  0  0  0  0
   41.8250   34.2780   53.4350 C   0  0  0  0  0  0  0  0  0  0  0  0
  1  5  1  0  0  0  0
  1  3  1  0  0  0  0
  2  1  1  0  0  0  0
  4  1  1  0  0  0  0
  6  5  1  0  0  0  0
  6  7  1  0  0  0  0
  8  9  1  0  0  0  0
  8  7  1  0  0  0  0
 10 11  1  0  0  0  0
 10  9  1  0  0  0  0
 12 11  1  0  0  0  0
 13 12  1  0  0  0  0
 14 15  1  0  0  0  0
 14 13  1  0  0  0  0
 16 15  1  0  0  0  0
M  END
$$$$
