1FX8_BOG.pdb
 OpenBabel08201721043D

 20 20  0  0  1  0  0  0  0  0999 V2000
   31.9160   78.2640  143.9810 C   0  0  1  0  0  0  0  0  0  0  0  0
   32.2190   77.6540  145.2330 O   0  0  0  0  0  0  0  0  0  0  0  0
   32.6170   77.4970  142.8480 C   0  0  2  0  0  0  0  0  0  0  0  0
   34.0280   77.6190  142.9880 O   0  0  0  0  0  0  0  0  0  0  0  0
   32.1360   77.9960  141.4550 C   0  0  1  0  0  0  0  0  0  0  0  0
   32.6510   77.2100  140.3770 O   0  0  0  0  0  0  0  0  0  0  0  0
   30.6130   78.0540  141.3700 C   0  0  2  0  0  0  0  0  0  0  0  0
   30.1800   78.5880  140.1070 O   0  0  0  0  0  0  0  0  0  0  0  0
   30.0630   78.8700  142.5520 C   0  0  2  0  0  0  0  0  0  0  0  0
   30.5000   78.2790  143.7890 O   0  0  0  0  0  0  0  0  0  0  0  0
   28.5360   78.8430  142.5060 C   0  0  0  0  0  0  0  0  0  0  0  0
   28.0970   77.4920  142.5460 O   0  0  0  0  0  0  0  0  0  0  0  0
   31.8670   78.4570  146.3600 C   0  0  0  0  0  0  0  0  0  0  0  0
   31.1520   77.6230  147.4260 C   0  0  0  0  0  0  0  0  0  0  0  0
   30.9760   78.4460  148.7160 C   0  0  0  0  0  0  0  0  0  0  0  0
   30.0850   77.7000  149.7180 C   0  0  0  0  0  0  0  0  0  0  0  0
   30.1190   78.3380  151.1160 C   0  0  0  0  0  0  0  0  0  0  0  0
   31.4290   78.0460  151.8730 C   0  0  0  0  0  0  0  0  0  0  0  0
   31.2520   78.4620  153.3400 C   0  0  0  0  0  0  0  0  0  0  0  0
   32.4080   77.9970  154.2330 C   0  0  0  0  0  0  0  0  0  0  0  0
  1  2  1  1  0  0  0
  2 13  1  0  0  0  0
  3  4  1  6  0  0  0
  3  1  1  0  0  0  0
  5  6  1  6  0  0  0
  5  3  1  0  0  0  0
  7  8  1  6  0  0  0
  7  5  1  0  0  0  0
  7  9  1  0  0  0  0
  9 11  1  1  0  0  0
  9 10  1  0  0  0  0
 10  1  1  0  0  0  0
 11 12  1  0  0  0  0
 13 14  1  0  0  0  0
 14 15  1  0  0  0  0
 15 16  1  0  0  0  0
 16 17  1  0  0  0  0
 17 18  1  0  0  0  0
 18 19  1  0  0  0  0
 19 20  1  0  0  0  0
M  END
$$$$
