1I5E_U5P.pdb
 OpenBabel08201721043D

 21 22  0  0  1  0  0  0  0  0999 V2000
    8.8350   64.3790   47.1420 N   0  0  0  0  0  0  0  0  0  0  0  0
   10.1000   63.8010   47.2250 C   0  0  0  0  0  0  0  0  0  0  0  0
   10.4390   63.1840   48.4250 N   0  0  0  0  0  0  0  0  0  0  0  0
    9.5620   63.1510   49.4880 C   0  0  0  0  0  0  0  0  0  0  0  0
    8.2830   63.7660   49.3370 C   0  0  0  0  0  0  0  0  0  0  0  0
    8.0170   64.3530   48.1240 C   0  0  0  0  0  0  0  0  0  0  0  0
   10.9530   63.8280   46.2060 O   0  0  0  0  0  0  0  0  0  0  0  0
    9.8960   62.5970   50.5410 O   0  0  0  0  0  0  0  0  0  0  0  0
    8.4530   65.0500   45.8200 C   0  0  1  0  0  0  0  0  0  0  0  0
    7.4360   64.2200   45.0320 C   0  0  2  0  0  0  0  0  0  0  0  0
    8.0660   63.4040   44.1310 O   0  0  0  0  0  0  0  0  0  0  0  0
    6.4190   65.2810   44.4640 C   0  0  1  0  0  0  0  0  0  0  0  0
    6.6290   66.4940   45.3060 C   0  0  2  0  0  0  0  0  0  0  0  0
    6.8600   65.5260   43.0830 O   0  0  0  0  0  0  0  0  0  0  0  0
    7.8750   66.3350   46.1150 O   0  0  0  0  0  0  0  0  0  0  0  0
    5.5730   66.9010   46.2360 C   0  0  0  0  0  0  0  0  0  0  0  0
    4.7410   65.7970   46.6590 O   0  0  0  0  0  0  0  0  0  0  0  0
    3.5600   66.0960   47.6430 P   0  0  0  0  0  0  0  0  0  0  0  0
    2.6860   67.1000   46.9120 O   0  0  0  0  0  0  0  0  0  0  0  0
    2.8340   64.7900   47.8750 O   0  0  0  0  0  0  0  0  0  0  0  0
    4.1470   66.6410   48.9260 O   0  0  0  0  0  0  0  0  0  0  0  0
  1  2  1  0  0  0  0
  1  6  1  0  0  0  0
  2  3  1  0  0  0  0
  3  4  1  0  0  0  0
  4  8  2  0  0  0  0
  5  4  1  0  0  0  0
  6  5  2  0  0  0  0
  7  2  2  0  0  0  0
  9 15  1  0  0  0  0
  9  1  1  1  0  0  0
 10 11  1  6  0  0  0
 10  9  1  0  0  0  0
 12 14  1  6  0  0  0
 12 10  1  0  0  0  0
 12 13  1  0  0  0  0
 13 15  1  0  0  0  0
 13 16  1  1  0  0  0
 16 17  1  0  0  0  0
 17 18  1  0  0  0  0
 18 20  1  0  0  0  0
 18 21  1  0  0  0  0
 19 18  2  0  0  0  0
M  END
$$$$
