1I9G_SAM.pdb
 OpenBabel08201721043D

 27 29  0  0  1  0  0  0  0  0999 V2000
   21.3670   -8.8210   19.0340 N   0  0  0  0  0  0  0  0  0  0  0  0
   21.1160  -10.1940   19.4590 C   0  0  2  0  0  0  0  0  0  0  0  0
   22.4540  -10.9190   19.6770 C   0  0  0  0  0  0  0  0  0  0  0  0
   23.5260  -10.3980   19.3340 O   0  0  0  0  0  0  0  0  0  0  0  0
   22.4240  -12.1420   19.9090 O   0  0  0  0  0  0  0  0  0  0  0  0
   20.2900  -10.9150   18.3690 C   0  0  0  0  0  0  0  0  0  0  0  0
   18.7870  -10.5290   18.3470 C   0  0  0  0  0  0  0  0  0  0  0  0
   17.8110  -11.5710   17.1840 S   0  0  2  0  0  0  0  0  0  0  0  0
   18.2180  -10.9710   15.5470 C   0  0  0  0  0  0  0  0  0  0  0  0
   16.1370  -10.8400   17.3490 C   0  0  0  0  0  0  0  0  0  0  0  0
   15.6180  -11.3010   18.6250 C   0  0  1  0  0  0  0  0  0  0  0  0
   14.5690  -10.3180   18.9810 O   0  0  0  0  0  0  0  0  0  0  0  0
   14.8940  -12.7220   18.4630 C   0  0  1  0  0  0  0  0  0  0  0  0
   15.3800  -13.6200   19.5290 O   0  0  0  0  0  0  0  0  0  0  0  0
   13.4190  -12.4090   18.6780 C   0  0  1  0  0  0  0  0  0  0  0  0
   12.6730  -13.4300   19.3220 O   0  0  0  0  0  0  0  0  0  0  0  0
   13.4210  -11.0940   19.4450 C   0  0  2  0  0  0  0  0  0  0  0  0
   12.1130  -10.2790   19.4220 N   0  0  0  0  0  0  0  0  0  0  0  0
   11.5200   -9.8390   18.2430 C   0  0  0  0  0  0  0  0  0  0  0  0
   10.5730   -8.9520   18.4180 N   0  0  0  0  0  0  0  0  0  0  0  0
   10.5650   -8.7690   19.8230 C   0  0  0  0  0  0  0  0  0  0  0  0
    9.7700   -7.9490   20.6560 C   0  0  0  0  0  0  0  0  0  0  0  0
    8.8140   -7.1260   20.1640 N   0  0  0  0  0  0  0  0  0  0  0  0
    9.9920   -8.0120   21.9910 N   0  0  0  0  0  0  0  0  0  0  0  0
   10.9300   -8.8370   22.4790 C   0  0  0  0  0  0  0  0  0  0  0  0
   11.7390   -9.6660   21.8090 N   0  0  0  0  0  0  0  0  0  0  0  0
   11.4920   -9.5660   20.4600 C   0  0  0  0  0  0  0  0  0  0  0  0
  2  1  1  6  0  0  0
  2  3  1  0  0  0  0
  3  5  1  0  0  0  0
  4  3  2  0  0  0  0
  6  2  1  0  0  0  0
  7  6  1  0  0  0  0
  8  9  1  6  0  0  0
  8 10  1  0  0  0  0
  8  7  1  0  0  0  0
 11 10  1  6  0  0  0
 11 12  1  0  0  0  0
 12 17  1  0  0  0  0
 13 11  1  0  0  0  0
 13 15  1  0  0  0  0
 13 14  1  1  0  0  0
 15 16  1  1  0  0  0
 15 17  1  0  0  0  0
 17 18  1  6  0  0  0
 18 27  1  0  0  0  0
 19 20  2  0  0  0  0
 19 18  1  0  0  0  0
 20 21  1  0  0  0  0
 21 27  2  0  0  0  0
 21 22  1  0  0  0  0
 22 24  2  0  0  0  0
 23 22  1  0  0  0  0
 24 25  1  0  0  0  0
 26 25  2  0  0  0  0
 27 26  1  0  0  0  0
M  END
$$$$
