1L0G_SUC.pdb
 OpenBabel08201721043D

 23 24  0  0  1  0  0  0  0  0999 V2000
   23.0020    9.3050   12.6030 C   0  0  1  0  0  0  0  0  0  0  0  0
   22.5260   10.0870   13.8330 C   0  0  1  0  0  0  0  0  0  0  0  0
   21.0110    9.8530   14.0510 C   0  0  2  0  0  0  0  0  0  0  0  0
   20.2350   10.3250   12.8040 C   0  0  1  0  0  0  0  0  0  0  0  0
   20.7690    9.5100   11.5910 C   0  0  1  0  0  0  0  0  0  0  0  0
   20.1470    9.8060   10.2370 C   0  0  0  0  0  0  0  0  0  0  0  0
   22.8090    7.9420   12.8910 O   0  0  0  0  0  0  0  0  0  0  0  0
   23.2620    9.6250   14.9460 O   0  0  0  0  0  0  0  0  0  0  0  0
   20.5760   10.5990   15.1840 O   0  0  0  0  0  0  0  0  0  0  0  0
   18.8300   10.0780   12.9760 O   0  0  0  0  0  0  0  0  0  0  0  0
   22.2290    9.7510   11.4460 O   0  0  0  0  0  0  0  0  0  0  0  0
   20.6270   11.0720    9.7620 O   0  0  0  0  0  0  0  0  0  0  0  0
   25.1160    7.1100   13.2380 C   0  0  0  0  0  0  0  0  0  0  0  0
   23.7900    6.9730   12.5060 C   0  0  1  0  0  0  0  0  0  0  0  0
   23.1760    5.5920   12.7690 C   0  0  2  0  0  0  0  0  0  0  0  0
   22.3430    5.3750   11.5380 C   0  0  1  0  0  0  0  0  0  0  0  0
   23.2170    6.0480   10.4420 C   0  0  1  0  0  0  0  0  0  0  0  0
   22.4110    6.7940    9.4090 C   0  0  0  0  0  0  0  0  0  0  0  0
   25.9980    6.0730   12.7680 O   0  0  0  0  0  0  0  0  0  0  0  0
   24.0670    7.0170   11.1160 O   0  0  0  0  0  0  0  0  0  0  0  0
   22.3160    5.6660   13.9170 O   0  0  0  0  0  0  0  0  0  0  0  0
   22.2270    3.9730   11.2840 O   0  0  0  0  0  0  0  0  0  0  0  0
   21.8610    5.8620    8.5050 O   0  0  0  0  0  0  0  0  0  0  0  0
  1  7  1  1  0  0  0
  1  2  1  0  0  0  0
  2  3  1  0  0  0  0
  2  8  1  1  0  0  0
  3  9  1  1  0  0  0
  4 10  1  1  0  0  0
  4  3  1  0  0  0  0
  5  6  1  6  0  0  0
  5  4  1  0  0  0  0
 11  5  1  0  0  0  0
 11  1  1  0  0  0  0
 12  6  1  0  0  0  0
 14  7  1  0  0  0  0
 14 13  1  1  0  0  0
 15 14  1  6  0  0  0
 15 21  1  0  0  0  0
 16 22  1  6  0  0  0
 16 15  1  0  0  0  0
 17 18  1  6  0  0  0
 17 20  1  0  0  0  0
 17 16  1  0  0  0  0
 19 13  1  0  0  0  0
 20 14  1  0  0  0  0
 23 18  1  0  0  0  0
M  END
$$$$
