1Q0R_1PE.pdb
 OpenBabel08201721043D

 16 15  0  0  0  0  0  0  0  0999 V2000
   -0.2460    3.7620    8.3100 O   0  0  0  0  0  0  0  0  0  0  0  0
   -0.4470    5.1600    8.3820 C   0  0  0  0  0  0  0  0  0  0  0  0
   -1.9320    5.4720    8.5050 C   0  0  0  0  0  0  0  0  0  0  0  0
   -2.0810    6.8590    8.8060 O   0  0  0  0  0  0  0  0  0  0  0  0
   -3.5640    8.7470    9.2040 C   0  0  0  0  0  0  0  0  0  0  0  0
   -3.4210    7.2280    9.1110 C   0  0  0  0  0  0  0  0  0  0  0  0
   -2.5540    9.3480   10.0160 O   0  0  0  0  0  0  0  0  0  0  0  0
   -0.8870   11.0560    9.9270 C   0  0  0  0  0  0  0  0  0  0  0  0
   -1.3240    9.6990    9.3960 C   0  0  0  0  0  0  0  0  0  0  0  0
    0.4670   11.2730    9.5450 O   0  0  0  0  0  0  0  0  0  0  0  0
    2.4450   12.5750    9.8220 C   0  0  0  0  0  0  0  0  0  0  0  0
    0.9400   12.5300   10.0200 C   0  0  0  0  0  0  0  0  0  0  0  0
    3.0450   11.6770   10.7400 O   0  0  0  0  0  0  0  0  0  0  0  0
    4.8830   11.1490   12.1090 C   0  0  0  0  0  0  0  0  0  0  0  0
    4.4520   11.8470   10.8350 C   0  0  0  0  0  0  0  0  0  0  0  0
    5.1800    9.8050   11.7690 O   0  0  0  0  0  0  0  0  0  0  0  0
  1  2  1  0  0  0  0
  2  3  1  0  0  0  0
  3  4  1  0  0  0  0
  4  6  1  0  0  0  0
  5  7  1  0  0  0  0
  6  5  1  0  0  0  0
  9  8  1  0  0  0  0
  9  7  1  0  0  0  0
 10  8  1  0  0  0  0
 10 12  1  0  0  0  0
 11 12  1  0  0  0  0
 11 13  1  0  0  0  0
 13 15  1  0  0  0  0
 15 14  1  0  0  0  0
 16 14  1  0  0  0  0
M  END
$$$$
