1W2T_SUC.pdb
 OpenBabel08201721043D

 23 24  0  0  1  0  0  0  0  0999 V2000
  -36.1170  -18.3720   -2.4180 C   0  0  1  0  0  0  0  0  0  0  0  0
  -35.7610  -18.4980   -3.9080 C   0  0  1  0  0  0  0  0  0  0  0  0
  -37.1020  -18.5630   -4.6500 C   0  0  2  0  0  0  0  0  0  0  0  0
  -37.9160  -19.7410   -4.0700 C   0  0  1  0  0  0  0  0  0  0  0  0
  -37.9950  -19.6840   -2.5120 C   0  0  1  0  0  0  0  0  0  0  0  0
  -38.6830  -20.8920   -1.9000 C   0  0  0  0  0  0  0  0  0  0  0  0
  -36.5130  -17.0660   -2.0080 O   0  0  0  0  0  0  0  0  0  0  0  0
  -34.9440  -17.4180   -4.3010 O   0  0  0  0  0  0  0  0  0  0  0  0
  -36.9490  -18.6600   -6.0630 O   0  0  0  0  0  0  0  0  0  0  0  0
  -39.2340  -19.7450   -4.5920 O   0  0  0  0  0  0  0  0  0  0  0  0
  -36.7040  -19.5560   -1.9060 O   0  0  0  0  0  0  0  0  0  0  0  0
  -38.0010  -22.0560   -2.2990 O   0  0  0  0  0  0  0  0  0  0  0  0
  -34.7660  -15.6650   -1.3090 C   0  0  0  0  0  0  0  0  0  0  0  0
  -36.0120  -16.4200   -0.8490 C   0  0  1  0  0  0  0  0  0  0  0  0
  -37.1550  -15.5020   -0.4110 C   0  0  2  0  0  0  0  0  0  0  0  0
  -37.9660  -16.4500    0.4330 C   0  0  1  0  0  0  0  0  0  0  0  0
  -36.8880  -17.2800    1.1230 C   0  0  1  0  0  0  0  0  0  0  0  0
  -37.3640  -18.6800    1.4960 C   0  0  0  0  0  0  0  0  0  0  0  0
  -33.6060  -16.4600   -1.1570 O   0  0  0  0  0  0  0  0  0  0  0  0
  -35.7970  -17.3250    0.2220 O   0  0  0  0  0  0  0  0  0  0  0  0
  -37.8910  -14.9520   -1.4940 O   0  0  0  0  0  0  0  0  0  0  0  0
  -38.8060  -15.7900    1.3520 O   0  0  0  0  0  0  0  0  0  0  0  0
  -36.6340  -19.1280    2.2630 O   0  0  0  0  0  0  0  0  0  0  0  0
  1  7  1  6  0  0  0
  1 11  1  0  0  0  0
  2  8  1  6  0  0  0
  2  1  1  0  0  0  0
  3  9  1  6  0  0  0
  3  4  1  0  0  0  0
  3  2  1  0  0  0  0
  4 10  1  6  0  0  0
  4  5  1  0  0  0  0
  5 11  1  0  0  0  0
  5  6  1  1  0  0  0
  7 14  1  0  0  0  0
 12  6  1  0  0  0  0
 13 19  1  0  0  0  0
 14 13  1  6  0  0  0
 14 20  1  0  0  0  0
 15 14  1  6  0  0  0
 15 16  1  0  0  0  0
 16 17  1  0  0  0  0
 16 22  1  1  0  0  0
 17 18  1  6  0  0  0
 18 23  1  0  0  0  0
 20 17  1  0  0  0  0
 21 15  1  0  0  0  0
M  END
$$$$
