1WLJ_U5P.pdb
 OpenBabel08201721043D

 21 22  0  0  1  0  0  0  0  0999 V2000
    9.2220   45.2480   30.5390 N   0  0  0  0  0  0  0  0  0  0  0  0
    9.4990   46.5050   31.0440 C   0  0  0  0  0  0  0  0  0  0  0  0
   10.3050   47.2840   30.2530 N   0  0  0  0  0  0  0  0  0  0  0  0
   10.8540   46.9410   29.0340 C   0  0  0  0  0  0  0  0  0  0  0  0
   10.5310   45.6170   28.5820 C   0  0  0  0  0  0  0  0  0  0  0  0
    9.7450   44.8360   29.3330 C   0  0  0  0  0  0  0  0  0  0  0  0
    9.0610   46.8990   32.1120 O   0  0  0  0  0  0  0  0  0  0  0  0
   11.5260   47.7720   28.4200 O   0  0  0  0  0  0  0  0  0  0  0  0
    8.3460   44.3770   31.3330 C   0  0  1  0  0  0  0  0  0  0  0  0
    6.8780   44.8070   31.2860 C   0  0  2  0  0  0  0  0  0  0  0  0
    6.2660   44.5040   32.5250 O   0  0  0  0  0  0  0  0  0  0  0  0
    6.3540   43.9430   30.1470 C   0  0  1  0  0  0  0  0  0  0  0  0
    7.0950   42.6380   30.3750 C   0  0  2  0  0  0  0  0  0  0  0  0
    4.9360   43.7620   30.1150 O   0  0  0  0  0  0  0  0  0  0  0  0
    8.4180   43.0640   30.8000 O   0  0  0  0  0  0  0  0  0  0  0  0
    7.2200   41.7500   29.1630 C   0  0  0  0  0  0  0  0  0  0  0  0
    7.9950   42.4110   28.1470 O   0  0  0  0  0  0  0  0  0  0  0  0
    7.9970   41.8770   26.6090 P   0  0  0  0  0  0  0  0  0  0  0  0
    9.4340   42.0540   26.1410 O   0  0  0  0  0  0  0  0  0  0  0  0
    7.0320   42.7790   25.8540 O   0  0  0  0  0  0  0  0  0  0  0  0
    7.5290   40.4280   26.6430 O   0  0  0  0  0  0  0  0  0  0  0  0
  1  2  1  0  0  0  0
  2  7  2  0  0  0  0
  3  2  1  0  0  0  0
  4  3  1  0  0  0  0
  5  4  1  0  0  0  0
  5  6  2  0  0  0  0
  6  1  1  0  0  0  0
  8  4  2  0  0  0  0
  9  1  1  6  0  0  0
 10  9  1  0  0  0  0
 10 11  1  1  0  0  0
 12 14  1  1  0  0  0
 12 13  1  0  0  0  0
 12 10  1  0  0  0  0
 13 16  1  6  0  0  0
 13 15  1  0  0  0  0
 15  9  1  0  0  0  0
 17 16  1  0  0  0  0
 18 21  1  0  0  0  0
 18 17  1  0  0  0  0
 19 18  1  0  0  0  0
 20 18  2  0  0  0  0
M  END
$$$$
