2IMD_GSH.pdb
 OpenBabel08201721043D

 20 19  0  0  1  0  0  0  0  0999 V2000
   33.4030   38.1000   36.9290 N   0  0  0  0  0  0  0  0  0  0  0  0
   32.1120   38.7410   36.7510 C   0  0  2  0  0  0  0  0  0  0  0  0
   31.1180   38.7640   37.8130 C   0  0  0  0  0  0  0  0  0  0  0  0
   30.0580   39.4960   37.7650 O   0  0  0  0  0  0  0  0  0  0  0  0
   31.3100   37.8490   38.6120 O   0  0  0  0  0  0  0  0  0  0  0  0
   31.6660   38.7140   35.2840 C   0  0  0  0  0  0  0  0  0  0  0  0
   30.5690   39.6370   34.7740 C   0  0  0  0  0  0  0  0  0  0  0  0
   30.2630   39.4020   33.3110 C   0  0  0  0  0  0  0  0  0  0  0  0
   30.8080   38.3950   32.6740 O   0  0  0  0  0  0  0  0  0  0  0  0
   29.4230   40.2410   32.6720 N   0  0  0  0  0  0  0  0  0  0  0  0
   29.0850   40.1590   31.2680 C   0  0  2  0  0  0  0  0  0  0  0  0
   29.7980   41.2540   30.5330 C   0  0  0  0  0  0  0  0  0  0  0  0
   29.7590   42.5490   31.0260 O   0  0  0  0  0  0  0  0  0  0  0  0
   27.5580   40.1940   31.0930 C   0  0  0  0  0  0  0  0  0  0  0  0
   26.7180   38.8740   32.0540 S   0  0  0  0  0  0  0  0  0  0  0  0
   30.4670   40.9510   29.4190 N   0  0  0  0  0  0  0  0  0  0  0  0
   31.2280   42.0350   28.8560 C   0  0  0  0  0  0  0  0  0  0  0  0
   32.7040   41.6720   28.8630 C   0  0  0  0  0  0  0  0  0  0  0  0
   33.5060   42.5800   28.5020 O   0  0  0  0  0  0  0  0  0  0  0  0
   33.1190   40.5140   29.1740 O   0  0  0  0  0  0  0  0  0  0  0  0
  2  1  1  1  0  0  0
  2  3  1  0  0  0  0
  3  5  1  0  0  0  0
  4  3  2  0  0  0  0
  6  2  1  0  0  0  0
  7  6  1  0  0  0  0
  8  7  1  0  0  0  0
  9  8  2  0  0  0  0
 10  8  1  0  0  0  0
 11 14  1  1  0  0  0
 11 10  1  0  0  0  0
 12 13  2  0  0  0  0
 12 11  1  0  0  0  0
 14 15  1  0  0  0  0
 16 12  1  0  0  0  0
 17 18  1  0  0  0  0
 17 16  1  0  0  0  0
 18 20  1  0  0  0  0
 19 18  2  0  0  0  0
M  END
$$$$
