2PBJ_GSH.pdb
 OpenBabel08201721043D

 20 19  0  0  1  0  0  0  0  0999 V2000
  -22.0850   45.3290   19.5940 N   0  0  0  0  0  0  0  0  0  0  0  0
  -21.7020   46.6220   20.1540 C   0  0  2  0  0  0  0  0  0  0  0  0
  -22.9100   47.4050   20.7130 C   0  0  0  0  0  0  0  0  0  0  0  0
  -24.0430   47.0240   20.4160 O   0  0  0  0  0  0  0  0  0  0  0  0
  -22.6540   48.4480   21.4890 O   0  0  0  0  0  0  0  0  0  0  0  0
  -21.0330   47.4180   19.0520 C   0  0  0  0  0  0  0  0  0  0  0  0
  -19.7710   48.1560   19.5500 C   0  0  0  0  0  0  0  0  0  0  0  0
  -19.1040   48.8140   18.3050 C   0  0  0  0  0  0  0  0  0  0  0  0
  -18.8870   48.1510   17.2860 O   0  0  0  0  0  0  0  0  0  0  0  0
  -18.7920   50.1250   18.4680 N   0  0  0  0  0  0  0  0  0  0  0  0
  -17.8670   50.8070   17.5580 C   0  0  2  0  0  0  0  0  0  0  0  0
  -16.6040   51.2170   18.3410 C   0  0  0  0  0  0  0  0  0  0  0  0
  -16.6370   52.0180   19.2930 O   0  0  0  0  0  0  0  0  0  0  0  0
  -18.4900   52.0840   16.9870 C   0  0  0  0  0  0  0  0  0  0  0  0
  -19.7550   51.7650   15.7070 S   0  0  0  0  0  0  0  0  0  0  0  0
  -15.4470   50.6510   17.9300 N   0  0  0  0  0  0  0  0  0  0  0  0
  -14.4270   50.1620   18.8760 C   0  0  0  0  0  0  0  0  0  0  0  0
  -13.7870   48.8850   18.3340 C   0  0  0  0  0  0  0  0  0  0  0  0
  -12.5720   48.7280   18.5790 O   0  0  0  0  0  0  0  0  0  0  0  0
  -14.5100   48.0650   17.6930 O   0  0  0  0  0  0  0  0  0  0  0  0
  2  1  1  6  0  0  0
  2  3  1  0  0  0  0
  3  5  1  0  0  0  0
  4  3  2  0  0  0  0
  6  7  1  0  0  0  0
  6  2  1  0  0  0  0
  8 10  1  0  0  0  0
  8  7  1  0  0  0  0
  9  8  2  0  0  0  0
 11 14  1  1  0  0  0
 11 12  1  0  0  0  0
 11 10  1  0  0  0  0
 12 13  2  0  0  0  0
 15 14  1  0  0  0  0
 16 12  1  0  0  0  0
 16 17  1  0  0  0  0
 18 19  1  0  0  0  0
 18 17  1  0  0  0  0
 20 18  2  0  0  0  0
M  END
$$$$
