1AIA_PMP.pdb
 OpenBabel08201720453D

 16 16  0  0  0  0  0  0  0  0999 V2000
    4.8210   27.3080   26.8860 N   0  0  0  0  0  0  0  0  0  0  0  0
    5.9100   26.5430   26.5680 C   0  0  0  0  0  0  0  0  0  0  0  0
    6.1300   25.2010   27.2000 C   0  0  0  0  0  0  0  0  0  0  0  0
    6.7780   27.0620   25.6400 C   0  0  0  0  0  0  0  0  0  0  0  0
    7.8190   26.3080   25.3390 O   0  0  0  0  0  0  0  0  0  0  0  0
    6.5610   28.2950   25.0780 C   0  0  0  0  0  0  0  0  0  0  0  0
    7.5040   28.8910   24.0770 C   0  0  0  0  0  0  0  0  0  0  0  0
    7.2980   28.7910   22.7490 N   0  0  0  0  0  0  0  0  0  0  0  0
    5.4870   29.0030   25.3640 C   0  0  0  0  0  0  0  0  0  0  0  0
    4.6070   28.5210   26.2960 C   0  0  0  0  0  0  0  0  0  0  0  0
    5.2470   30.2890   24.6800 C   0  0  0  0  0  0  0  0  0  0  0  0
    4.7080   30.3620   23.4510 O   0  0  0  0  0  0  0  0  0  0  0  0
    4.7060   31.8010   22.8330 P   0  0  0  0  0  0  0  0  0  0  0  0
    4.8030   32.8010   23.9190 O   0  0  0  0  0  0  0  0  0  0  0  0
    5.9320   31.7990   22.0030 O   0  0  0  0  0  0  0  0  0  0  0  0
    3.5060   32.0370   22.0000 O   0  0  0  0  0  0  0  0  0  0  0  0
  2  1  1  0  0  0  0
  2  3  1  0  0  0  0
  4  2  2  0  0  0  0
  5  4  1  0  0  0  0
  6  9  2  0  0  0  0
  6  4  1  0  0  0  0
  7  6  1  0  0  0  0
  8  7  1  0  0  0  0
  9 10  1  0  0  0  0
 10  1  2  0  0  0  0
 11  9  1  0  0  0  0
 12 11  1  0  0  0  0
 13 12  1  0  0  0  0
 13 14  1  0  0  0  0
 15 13  1  0  0  0  0
 16 13  2  0  0  0  0
M  END
$$$$
