1EEM_GSH.pdb
 OpenBabel08201720453D

 20 19  0  0  1  0  0  0  0  0999 V2000
   17.4650    4.8350   40.6900 N   0  0  0  0  0  0  0  0  0  0  0  0
   17.8620    5.8330   39.7050 C   0  0  2  0  0  0  0  0  0  0  0  0
   19.1720    6.5430   40.1130 C   0  0  0  0  0  0  0  0  0  0  0  0
   19.8760    7.0590   39.2340 O   0  0  0  0  0  0  0  0  0  0  0  0
   19.4630    6.5450   41.4080 O   0  0  0  0  0  0  0  0  0  0  0  0
   16.7070    6.8390   39.5330 C   0  0  0  0  0  0  0  0  0  0  0  0
   17.0510    7.9920   38.5580 C   0  0  0  0  0  0  0  0  0  0  0  0
   15.7150    8.6450   38.1290 C   0  0  0  0  0  0  0  0  0  0  0  0
   14.6410    8.2780   38.6090 O   0  0  0  0  0  0  0  0  0  0  0  0
   15.8230    9.6140   37.2140 N   0  0  0  0  0  0  0  0  0  0  0  0
   14.6130   10.2820   36.7380 C   0  0  2  0  0  0  0  0  0  0  0  0
   14.3590    9.8240   35.2870 C   0  0  0  0  0  0  0  0  0  0  0  0
   15.2770    9.6080   34.4830 O   0  0  0  0  0  0  0  0  0  0  0  0
   14.7800   11.8140   36.7030 C   0  0  0  0  0  0  0  0  0  0  0  0
   15.3770   12.5410   38.2610 S   0  0  0  0  0  0  0  0  0  0  0  0
   13.0720    9.6700   34.9290 N   0  0  0  0  0  0  0  0  0  0  0  0
   12.6890    9.2410   33.5720 C   0  0  0  0  0  0  0  0  0  0  0  0
   11.4300    8.4030   33.6560 C   0  0  0  0  0  0  0  0  0  0  0  0
   11.2140    7.8060   34.7220 O   0  0  0  0  0  0  0  0  0  0  0  0
   10.6940    8.3600   32.6490 O   0  0  0  0  0  0  0  0  0  0  0  0
  2  3  1  0  0  0  0
  2  1  1  1  0  0  0
  3  5  1  0  0  0  0
  4  3  2  0  0  0  0
  6  2  1  0  0  0  0
  7  6  1  0  0  0  0
  8  7  1  0  0  0  0
  8  9  2  0  0  0  0
 10  8  1  0  0  0  0
 11 14  1  6  0  0  0
 11 10  1  0  0  0  0
 12 11  1  0  0  0  0
 13 12  2  0  0  0  0
 14 15  1  0  0  0  0
 16 12  1  0  0  0  0
 17 18  1  0  0  0  0
 17 16  1  0  0  0  0
 18 19  1  0  0  0  0
 20 18  2  0  0  0  0
M  END
$$$$
