1EIZ_SAM.pdb
 OpenBabel08201720453D

 27 29  0  0  1  0  0  0  0  0999 V2000
    0.7780   40.7440   12.8000 N   0  0  0  0  0  0  0  0  0  0  0  0
   -0.5060   40.5250   12.0590 C   0  0  2  0  0  0  0  0  0  0  0  0
   -1.0090   41.8720   11.5450 C   0  0  0  0  0  0  0  0  0  0  0  0
   -0.3570   42.8850   11.8440 O   0  0  0  0  0  0  0  0  0  0  0  0
   -2.0650   41.8930   10.8730 O   0  0  0  0  0  0  0  0  0  0  0  0
   -1.5610   39.8880   12.9870 C   0  0  0  0  0  0  0  0  0  0  0  0
   -1.2890   38.4090   13.2260 C   0  0  0  0  0  0  0  0  0  0  0  0
   -2.5120   37.5480   14.2530 S   0  0  2  0  0  0  0  0  0  0  0  0
   -1.9620   38.0890   15.9330 C   0  0  0  0  0  0  0  0  0  0  0  0
   -1.8420   35.8970   14.2580 C   0  0  0  0  0  0  0  0  0  0  0  0
   -1.9700   35.1110   12.9790 C   0  0  1  0  0  0  0  0  0  0  0  0
   -1.1780   33.9120   13.0860 O   0  0  0  0  0  0  0  0  0  0  0  0
   -3.3860   34.6220   12.6510 C   0  0  1  0  0  0  0  0  0  0  0  0
   -3.7180   35.4230   11.4840 O   0  0  0  0  0  0  0  0  0  0  0  0
   -3.1900   33.1850   12.1570 C   0  0  1  0  0  0  0  0  0  0  0  0
   -3.9450   32.6760   11.0710 O   0  0  0  0  0  0  0  0  0  0  0  0
   -1.6710   33.0150   12.1260 C   0  0  2  0  0  0  0  0  0  0  0  0
   -1.1860   31.6620   12.3600 N   0  0  0  0  0  0  0  0  0  0  0  0
   -1.3740   30.8260   13.4390 C   0  0  0  0  0  0  0  0  0  0  0  0
   -0.9010   29.6220   13.2560 N   0  0  0  0  0  0  0  0  0  0  0  0
   -0.3460   29.6640   11.9890 C   0  0  0  0  0  0  0  0  0  0  0  0
    0.2930   28.6850   11.1950 C   0  0  0  0  0  0  0  0  0  0  0  0
    0.4320   27.3980   11.5610 N   0  0  0  0  0  0  0  0  0  0  0  0
    0.7610   29.0630    9.9900 N   0  0  0  0  0  0  0  0  0  0  0  0
    0.5650   30.3370    9.5910 C   0  0  0  0  0  0  0  0  0  0  0  0
   -0.0450   31.3310   10.2370 N   0  0  0  0  0  0  0  0  0  0  0  0
   -0.4830   30.9240   11.4390 C   0  0  0  0  0  0  0  0  0  0  0  0
  2  1  1  1  0  0  0
  2  6  1  0  0  0  0
  3  4  1  0  0  0  0
  3  2  1  0  0  0  0
  5  3  2  0  0  0  0
  6  7  1  0  0  0  0
  7  8  1  0  0  0  0
  8 10  1  0  0  0  0
  8  9  1  1  0  0  0
 11 12  1  0  0  0  0
 11 10  1  1  0  0  0
 13 14  1  6  0  0  0
 13 11  1  0  0  0  0
 15 16  1  6  0  0  0
 15 13  1  0  0  0  0
 17 15  1  0  0  0  0
 17 18  1  1  0  0  0
 17 12  1  0  0  0  0
 18 19  1  0  0  0  0
 20 19  2  0  0  0  0
 21 20  1  0  0  0  0
 22 23  1  0  0  0  0
 22 21  2  0  0  0  0
 24 22  1  0  0  0  0
 25 24  2  0  0  0  0
 25 26  1  0  0  0  0
 26 27  2  0  0  0  0
 27 21  1  0  0  0  0
 27 18  1  0  0  0  0
M  END
$$$$
