1FG7_PMP.pdb
 OpenBabel08201720453D

 16 16  0  0  0  0  0  0  0  0999 V2000
   50.5000   48.9340   -2.0480 N   0  0  0  0  0  0  0  0  0  0  0  0
   49.6860   49.3170   -3.1300 C   0  0  0  0  0  0  0  0  0  0  0  0
   48.3060   48.6810   -3.2280 C   0  0  0  0  0  0  0  0  0  0  0  0
   50.1190   50.2550   -4.0640 C   0  0  0  0  0  0  0  0  0  0  0  0
   49.2840   50.6140   -5.1120 O   0  0  0  0  0  0  0  0  0  0  0  0
   51.4050   50.8320   -3.9100 C   0  0  0  0  0  0  0  0  0  0  0  0
   51.8690   51.8780   -4.9380 C   0  0  0  0  0  0  0  0  0  0  0  0
   51.2940   51.6970   -6.2750 N   0  0  0  0  0  0  0  0  0  0  0  0
   52.2480   50.3880   -2.7270 C   0  0  0  0  0  0  0  0  0  0  0  0
   51.7500   49.4400   -1.8310 C   0  0  0  0  0  0  0  0  0  0  0  0
   53.6380   50.9740   -2.5200 C   0  0  0  0  0  0  0  0  0  0  0  0
   53.5310   51.9710   -2.0620 O   0  0  0  0  0  0  0  0  0  0  0  0
   55.0230   52.7050   -2.0020 P   0  0  0  0  0  0  0  0  0  0  0  0
   56.6400   51.6910   -2.0500 O   0  0  0  0  0  0  0  0  0  0  0  0
   54.9800   53.4000   -0.2020 O   0  0  0  0  0  0  0  0  0  0  0  0
   55.1730   54.0900   -3.1760 O   0  0  0  0  0  0  0  0  0  0  0  0
  1 10  1  0  0  0  0
  2  1  2  0  0  0  0
  3  2  1  0  0  0  0
  4  6  2  0  0  0  0
  4  2  1  0  0  0  0
  5  4  1  0  0  0  0
  6  9  1  0  0  0  0
  7  6  1  0  0  0  0
  8  7  1  0  0  0  0
  9 11  1  0  0  0  0
  9 10  2  0  0  0  0
 11 12  1  0  0  0  0
 12 13  1  0  0  0  0
 13 15  1  0  0  0  0
 14 13  1  0  0  0  0
 16 13  2  0  0  0  0
M  END
$$$$
