1MSK_SAM.pdb
 OpenBabel08201720453D

 27 29  0  0  1  0  0  0  0  0999 V2000
   10.3280   21.1370   14.0020 N   0  0  0  0  0  0  0  0  0  0  0  0
    9.6530   19.9080   13.7450 C   0  0  2  0  0  0  0  0  0  0  0  0
    8.5250   20.1480   12.8000 C   0  0  0  0  0  0  0  0  0  0  0  0
    7.9850   21.2690   12.7990 O   0  0  0  0  0  0  0  0  0  0  0  0
    8.1380   19.2260   12.0450 O   0  0  0  0  0  0  0  0  0  0  0  0
    9.0320   19.3040   15.0140 C   0  0  0  0  0  0  0  0  0  0  0  0
    8.0740   18.1370   14.7390 C   0  0  0  0  0  0  0  0  0  0  0  0
    8.9850   16.6500   14.2270 S   0  0  2  0  0  0  0  0  0  0  0  0
    7.6870   15.5760   13.6340 C   0  0  0  0  0  0  0  0  0  0  0  0
    9.5100   15.7820   15.7920 C   0  0  0  0  0  0  0  0  0  0  0  0
    8.3490   15.0600   16.5580 C   0  0  1  0  0  0  0  0  0  0  0  0
    8.0080   13.7450   16.0150 O   0  0  0  0  0  0  0  0  0  0  0  0
    8.6590   14.8280   18.0390 C   0  0  1  0  0  0  0  0  0  0  0  0
    8.4400   16.0260   18.8090 O   0  0  0  0  0  0  0  0  0  0  0  0
    7.7610   13.6230   18.3880 C   0  0  1  0  0  0  0  0  0  0  0  0
    6.4200   13.9850   18.6630 O   0  0  0  0  0  0  0  0  0  0  0  0
    7.7580   12.7850   17.1030 C   0  0  2  0  0  0  0  0  0  0  0  0
    8.8640   11.7820   17.0370 N   0  0  0  0  0  0  0  0  0  0  0  0
   10.0120   11.9170   16.3090 C   0  0  0  0  0  0  0  0  0  0  0  0
   10.8350   10.9120   16.4110 N   0  0  0  0  0  0  0  0  0  0  0  0
   10.1800   10.0390   17.2650 C   0  0  0  0  0  0  0  0  0  0  0  0
   10.5340    8.7140   17.7430 C   0  0  0  0  0  0  0  0  0  0  0  0
   11.6390    8.0660   17.3670 N   0  0  0  0  0  0  0  0  0  0  0  0
    9.6310    8.1470   18.5450 N   0  0  0  0  0  0  0  0  0  0  0  0
    8.4890    8.7530   18.8620 C   0  0  0  0  0  0  0  0  0  0  0  0
    8.0660    9.9590   18.4720 N   0  0  0  0  0  0  0  0  0  0  0  0
    8.9680   10.5540   17.6700 C   0  0  0  0  0  0  0  0  0  0  0  0
  2  1  1  1  0  0  0
  2  6  1  0  0  0  0
  3  2  1  0  0  0  0
  4  3  1  0  0  0  0
  5  3  2  0  0  0  0
  7  6  1  0  0  0  0
  8  9  1  6  0  0  0
  8  7  1  0  0  0  0
  8 10  1  0  0  0  0
 11 10  1  6  0  0  0
 11 13  1  0  0  0  0
 12 11  1  0  0  0  0
 12 17  1  0  0  0  0
 13 15  1  0  0  0  0
 13 14  1  1  0  0  0
 15 16  1  6  0  0  0
 17 18  1  1  0  0  0
 17 15  1  0  0  0  0
 18 27  1  0  0  0  0
 19 20  2  0  0  0  0
 19 18  1  0  0  0  0
 20 21  1  0  0  0  0
 21 27  2  0  0  0  0
 21 22  1  0  0  0  0
 22 24  2  0  0  0  0
 23 22  1  0  0  0  0
 24 25  1  0  0  0  0
 26 25  2  0  0  0  0
 27 26  1  0  0  0  0
M  END
$$$$
