1NW3_SAM.pdb
 OpenBabel08201720453D

 27 29  0  0  1  0  0  0  0  0999 V2000
   87.2140   10.4710   -1.8140 N   0  0  0  0  0  0  0  0  0  0  0  0
   86.1200    9.4650   -1.6180 C   0  0  2  0  0  0  0  0  0  0  0  0
   85.2380    9.4520   -2.8660 C   0  0  0  0  0  0  0  0  0  0  0  0
   85.4840   10.2480   -3.7830 O   0  0  0  0  0  0  0  0  0  0  0  0
   84.2850    8.6020   -2.8490 O   0  0  0  0  0  0  0  0  0  0  0  0
   85.2020    9.9100   -0.4560 C   0  0  0  0  0  0  0  0  0  0  0  0
   85.6860   11.1670    0.1680 C   0  0  0  0  0  0  0  0  0  0  0  0
   84.7240   11.9610    1.4890 S   0  0  2  0  0  0  0  0  0  0  0  0
   83.3620   12.7000    0.5720 C   0  0  0  0  0  0  0  0  0  0  0  0
   85.7520   13.3080    1.9040 C   0  0  0  0  0  0  0  0  0  0  0  0
   86.9470   12.9030    2.7530 C   0  0  1  0  0  0  0  0  0  0  0  0
   87.7500   14.0830    2.9580 O   0  0  0  0  0  0  0  0  0  0  0  0
   86.5220   12.5480    4.1910 C   0  0  1  0  0  0  0  0  0  0  0  0
   86.6790   11.1140    4.2930 O   0  0  0  0  0  0  0  0  0  0  0  0
   87.5270   13.2250    5.1050 C   0  0  1  0  0  0  0  0  0  0  0  0
   88.0800   12.5690    6.2090 O   0  0  0  0  0  0  0  0  0  0  0  0
   88.5240   13.8220    4.0850 C   0  0  2  0  0  0  0  0  0  0  0  0
   89.1680   15.0320    4.5460 N   0  0  0  0  0  0  0  0  0  0  0  0
   88.6130   16.2290    4.9400 C   0  0  0  0  0  0  0  0  0  0  0  0
   89.4940   17.1250    5.2970 N   0  0  0  0  0  0  0  0  0  0  0  0
   90.7160   16.4790    5.1280 C   0  0  0  0  0  0  0  0  0  0  0  0
   92.0640   16.8890    5.3330 C   0  0  0  0  0  0  0  0  0  0  0  0
   92.3780   18.1180    5.7790 N   0  0  0  0  0  0  0  0  0  0  0  0
   93.0830   16.0020    5.0690 N   0  0  0  0  0  0  0  0  0  0  0  0
   92.7540   14.7660    4.6190 C   0  0  0  0  0  0  0  0  0  0  0  0
   91.5150   14.2700    4.3890 N   0  0  0  0  0  0  0  0  0  0  0  0
   90.5300   15.1850    4.6640 C   0  0  0  0  0  0  0  0  0  0  0  0
  2  1  1  6  0  0  0
  2  6  1  0  0  0  0
  3  5  1  0  0  0  0
  3  2  1  0  0  0  0
  4  3  2  0  0  0  0
  6  7  1  0  0  0  0
  7  8  1  0  0  0  0
  8  9  1  6  0  0  0
  8 10  1  0  0  0  0
 11 10  1  6  0  0  0
 11 12  1  0  0  0  0
 11 13  1  0  0  0  0
 12 17  1  0  0  0  0
 13 14  1  6  0  0  0
 13 15  1  0  0  0  0
 15 16  1  1  0  0  0
 17 18  1  1  0  0  0
 17 15  1  0  0  0  0
 18 27  1  0  0  0  0
 18 19  1  0  0  0  0
 19 20  2  0  0  0  0
 21 20  1  0  0  0  0
 21 22  1  0  0  0  0
 22 23  1  0  0  0  0
 24 22  2  0  0  0  0
 25 24  1  0  0  0  0
 26 25  2  0  0  0  0
 26 27  1  0  0  0  0
 27 21  2  0  0  0  0
M  END
$$$$
