1S7G_1PE.pdb
 OpenBabel08201720453D

 16 15  0  0  0  0  0  0  0  0999 V2000
   21.6910   43.8410    3.2370 O   0  0  0  0  0  0  0  0  0  0  0  0
   21.7250   43.7610    4.6730 C   0  0  0  0  0  0  0  0  0  0  0  0
   21.7450   42.2760    5.1080 C   0  0  0  0  0  0  0  0  0  0  0  0
   22.7770   42.0550    6.0900 O   0  0  0  0  0  0  0  0  0  0  0  0
   24.0310   40.2400    7.1750 C   0  0  0  0  0  0  0  0  0  0  0  0
   22.6510   40.7430    6.6700 C   0  0  0  0  0  0  0  0  0  0  0  0
   24.9160   40.0980    6.0510 O   0  0  0  0  0  0  0  0  0  0  0  0
   26.9350   41.3510    5.6340 C   0  0  0  0  0  0  0  0  0  0  0  0
   26.2860   40.2280    6.4570 C   0  0  0  0  0  0  0  0  0  0  0  0
   27.6820   40.7880    4.5530 O   0  0  0  0  0  0  0  0  0  0  0  0
   27.8920   41.4180    2.2680 C   0  0  0  0  0  0  0  0  0  0  0  0
   28.1630   41.8240    3.6970 C   0  0  0  0  0  0  0  0  0  0  0  0
   26.5600   41.8000    1.9360 O   0  0  0  0  0  0  0  0  0  0  0  0
   25.5590   43.5490    0.6220 C   0  0  0  0  0  0  0  0  0  0  0  0
   26.5240   42.3680    0.6340 C   0  0  0  0  0  0  0  0  0  0  0  0
   26.2420   44.7620    0.9770 O   0  0  0  0  0  0  0  0  0  0  0  0
  1  2  1  0  0  0  0
  2  3  1  0  0  0  0
  3  4  1  0  0  0  0
  4  6  1  0  0  0  0
  6  5  1  0  0  0  0
  7  9  1  0  0  0  0
  7  5  1  0  0  0  0
  8  9  1  0  0  0  0
 10  8  1  0  0  0  0
 11 12  1  0  0  0  0
 12 10  1  0  0  0  0
 13 11  1  0  0  0  0
 14 15  1  0  0  0  0
 14 16  1  0  0  0  0
 15 13  1  0  0  0  0
M  END
$$$$
