1YLJ_SUC.pdb
 OpenBabel08201720453D

 23 24  0  0  1  0  0  0  0  0999 V2000
   30.5310   70.5410   -4.3590 C   0  0  1  0  0  0  0  0  0  0  0  0
   29.1060   70.0030   -4.2490 C   0  0  1  0  0  0  0  0  0  0  0  0
   28.2120   70.7060   -5.2820 C   0  0  2  0  0  0  0  0  0  0  0  0
   28.2980   72.1890   -5.0520 C   0  0  1  0  0  0  0  0  0  0  0  0
   29.7150   72.7040   -5.1980 C   0  0  1  0  0  0  0  0  0  0  0  0
   29.9850   74.1870   -5.0780 C   0  0  0  0  0  0  0  0  0  0  0  0
   31.0440   70.2570   -5.6670 O   0  0  0  0  0  0  0  0  0  0  0  0
   29.0980   68.6160   -4.5530 O   0  0  0  0  0  0  0  0  0  0  0  0
   26.8980   70.1580   -5.2280 O   0  0  0  0  0  0  0  0  0  0  0  0
   27.3700   72.8080   -5.9720 O   0  0  0  0  0  0  0  0  0  0  0  0
   30.5310   72.0020   -4.1790 O   0  0  0  0  0  0  0  0  0  0  0  0
   29.8770   74.5820   -3.7340 O   0  0  0  0  0  0  0  0  0  0  0  0
   32.3980   68.3270   -5.2220 C   0  0  0  0  0  0  0  0  0  0  0  0
   32.4010   69.7410   -5.7390 C   0  0  1  0  0  0  0  0  0  0  0  0
   32.8700   69.9420   -7.2140 C   0  0  2  0  0  0  0  0  0  0  0  0
   33.3450   71.3770   -7.1890 C   0  0  1  0  0  0  0  0  0  0  0  0
   34.0080   71.4720   -5.8150 C   0  0  1  0  0  0  0  0  0  0  0  0
   33.9480   72.8690   -5.1480 C   0  0  0  0  0  0  0  0  0  0  0  0
   33.6060   67.7200   -5.2140 O   0  0  0  0  0  0  0  0  0  0  0  0
   33.2600   70.5620   -4.9890 O   0  0  0  0  0  0  0  0  0  0  0  0
   31.8270   69.6720   -8.1330 O   0  0  0  0  0  0  0  0  0  0  0  0
   34.3070   71.6310   -8.2560 O   0  0  0  0  0  0  0  0  0  0  0  0
   34.6290   72.8720   -3.9050 O   0  0  0  0  0  0  0  0  0  0  0  0
  1  7  1  6  0  0  0
  1  2  1  0  0  0  0
  1 11  1  0  0  0  0
  2  8  1  6  0  0  0
  3  9  1  1  0  0  0
  3  4  1  0  0  0  0
  3  2  1  0  0  0  0
  4 10  1  6  0  0  0
  5  6  1  1  0  0  0
  5  4  1  0  0  0  0
  5 11  1  0  0  0  0
  6 12  1  0  0  0  0
 13 19  1  0  0  0  0
 14  7  1  0  0  0  0
 14 13  1  1  0  0  0
 14 20  1  0  0  0  0
 15 16  1  0  0  0  0
 15 14  1  1  0  0  0
 16 22  1  6  0  0  0
 16 17  1  0  0  0  0
 17 18  1  1  0  0  0
 17 20  1  0  0  0  0
 18 23  1  0  0  0  0
 21 15  1  0  0  0  0
M  END
$$$$
