2BYN_1PE.pdb
 OpenBabel08201720453D

 16 15  0  0  0  0  0  0  0  0999 V2000
    1.6270   25.8070   20.8220 O   0  0  0  0  0  0  0  0  0  0  0  0
    2.7230   25.0170   21.3050 C   0  0  0  0  0  0  0  0  0  0  0  0
    3.0750   25.3630   22.7540 C   0  0  0  0  0  0  0  0  0  0  0  0
    1.9890   26.0640   23.3870 O   0  0  0  0  0  0  0  0  0  0  0  0
    3.0470   27.1550   25.2520 C   0  0  0  0  0  0  0  0  0  0  0  0
    2.0590   26.0850   24.8170 C   0  0  0  0  0  0  0  0  0  0  0  0
    4.2520   26.5150   25.6930 O   0  0  0  0  0  0  0  0  0  0  0  0
    6.6210   26.8190   26.1610 C   0  0  0  0  0  0  0  0  0  0  0  0
    5.2080   27.3490   26.3760 C   0  0  0  0  0  0  0  0  0  0  0  0
    7.3370   27.6320   25.2220 O   0  0  0  0  0  0  0  0  0  0  0  0
    7.7680   27.7770   22.8830 C   0  0  0  0  0  0  0  0  0  0  0  0
    7.8870   26.9050   24.1230 C   0  0  0  0  0  0  0  0  0  0  0  0
    6.6460   27.3910   22.0840 O   0  0  0  0  0  0  0  0  0  0  0  0
    4.8350   28.2030   20.7110 C   0  0  0  0  0  0  0  0  0  0  0  0
    6.3130   28.3510   21.0760 C   0  0  0  0  0  0  0  0  0  0  0  0
    4.0330   29.1740   21.3900 O   0  0  0  0  0  0  0  0  0  0  0  0
  1  2  1  0  0  0  0
  2  3  1  0  0  0  0
  3  4  1  0  0  0  0
  4  6  1  0  0  0  0
  5  7  1  0  0  0  0
  6  5  1  0  0  0  0
  7  9  1  0  0  0  0
  8  9  1  0  0  0  0
 10  8  1  0  0  0  0
 11 12  1  0  0  0  0
 12 10  1  0  0  0  0
 13 11  1  0  0  0  0
 14 15  1  0  0  0  0
 14 16  1  0  0  0  0
 15 13  1  0  0  0  0
M  END
$$$$
