2HAW_1PE.pdb
 OpenBabel08201720453D

 16 15  0  0  0  0  0  0  0  0999 V2000
  -11.1350  -19.8270  139.0120 O   0  0  0  0  0  0  0  0  0  0  0  0
  -11.6360  -21.0270  139.5700 C   0  0  0  0  0  0  0  0  0  0  0  0
  -10.7760  -22.2000  139.1350 C   0  0  0  0  0  0  0  0  0  0  0  0
   -9.7530  -22.3860  140.0870 O   0  0  0  0  0  0  0  0  0  0  0  0
   -8.4300  -24.0270  141.2460 C   0  0  0  0  0  0  0  0  0  0  0  0
   -9.0780  -23.6350  139.9230 C   0  0  0  0  0  0  0  0  0  0  0  0
   -9.3950  -24.7760  141.9920 O   0  0  0  0  0  0  0  0  0  0  0  0
  -10.0740  -22.8070  143.5080 C   0  0  0  0  0  0  0  0  0  0  0  0
   -9.7800  -24.2990  143.2890 C   0  0  0  0  0  0  0  0  0  0  0  0
  -11.4750  -22.6690  143.8350 O   0  0  0  0  0  0  0  0  0  0  0  0
  -13.6450  -21.5740  143.7310 C   0  0  0  0  0  0  0  0  0  0  0  0
  -12.1850  -21.5590  143.2660 C   0  0  0  0  0  0  0  0  0  0  0  0
  -14.6280  -22.2000  142.8870 O   0  0  0  0  0  0  0  0  0  0  0  0
  -17.0270  -22.4750  143.0140 C   0  0  0  0  0  0  0  0  0  0  0  0
  -15.8540  -21.5240  143.1530 C   0  0  0  0  0  0  0  0  0  0  0  0
  -16.9700  -22.9800  141.6900 O   0  0  0  0  0  0  0  0  0  0  0  0
  1  2  1  0  0  0  0
  3  2  1  0  0  0  0
  3  4  1  0  0  0  0
  5  7  1  0  0  0  0
  6  4  1  0  0  0  0
  6  5  1  0  0  0  0
  7  9  1  0  0  0  0
  8 10  1  0  0  0  0
  9  8  1  0  0  0  0
 12 11  1  0  0  0  0
 12 10  1  0  0  0  0
 13 15  1  0  0  0  0
 13 11  1  0  0  0  0
 14 15  1  0  0  0  0
 16 14  1  0  0  0  0
M  END
$$$$
