2IU8_PLM.pdb
 OpenBabel08201720453D

 18 17  0  0  0  0  0  0  0  0999 V2000
   39.9170  -90.9880  -31.4360 C   0  0  0  0  0  0  0  0  0  0  0  0
   40.0610  -89.9410  -30.7680 O   0  0  0  0  0  0  0  0  0  0  0  0
   38.7590  -91.2780  -31.8790 O   0  0  0  0  0  0  0  0  0  0  0  0
   41.1430  -91.8790  -31.6400 C   0  0  0  0  0  0  0  0  0  0  0  0
   42.2080  -91.3590  -32.6160 C   0  0  0  0  0  0  0  0  0  0  0  0
   43.4820  -92.2190  -32.5890 C   0  0  0  0  0  0  0  0  0  0  0  0
   44.6970  -91.3390  -32.2780 C   0  0  0  0  0  0  0  0  0  0  0  0
   45.8140  -92.0930  -31.5750 C   0  0  0  0  0  0  0  0  0  0  0  0
   46.2820  -91.3780  -30.3180 C   0  0  0  0  0  0  0  0  0  0  0  0
   47.8150  -91.2550  -30.2910 C   0  0  0  0  0  0  0  0  0  0  0  0
   48.2570  -90.0080  -29.5320 C   0  0  0  0  0  0  0  0  0  0  0  0
   49.7630  -89.8830  -29.2840 C   0  0  0  0  0  0  0  0  0  0  0  0
   50.1360  -90.6890  -28.0410 C   0  0  0  0  0  0  0  0  0  0  0  0
   51.5700  -90.4990  -27.5400 C   0  0  0  0  0  0  0  0  0  0  0  0
   51.8510  -91.3580  -26.3060 C   0  0  0  0  0  0  0  0  0  0  0  0
   51.5500  -90.6750  -24.9710 C   0  0  0  0  0  0  0  0  0  0  0  0
   50.0490  -90.6340  -24.6390 C   0  0  0  0  0  0  0  0  0  0  0  0
   49.5110  -89.2050  -24.5470 C   0  0  0  0  0  0  0  0  0  0  0  0
  1  2  1  0  0  0  0
  3  1  2  0  0  0  0
  4  1  1  0  0  0  0
  5  6  1  0  0  0  0
  5  4  1  0  0  0  0
  6  7  1  0  0  0  0
  7  8  1  0  0  0  0
  8  9  1  0  0  0  0
  9 10  1  0  0  0  0
 10 11  1  0  0  0  0
 11 12  1  0  0  0  0
 12 13  1  0  0  0  0
 13 14  1  0  0  0  0
 14 15  1  0  0  0  0
 15 16  1  0  0  0  0
 16 17  1  0  0  0  0
 17 18  1  0  0  0  0
M  END
$$$$
